D1.cdx
  MOE2008           3D

 46 49  0  0  0  0  0  0  0  0999 V2000
   -6.8990   18.2420    0.2420 C   0  0  0  0  0  0  0  0  0  0  0  0
   -7.7340   18.7440   -0.2410 H   0  0  0  0  0  0  0  0  0  0  0  0
   -7.0220   17.8070    1.5590 C   0  0  0  0  0  0  0  0  0  0  0  0
   -7.9530   17.9740    2.0940 H   0  0  0  0  0  0  0  0  0  0  0  0
   -5.9670   17.1560    2.2040 C   0  0  0  0  0  0  0  0  0  0  0  0
   -6.0690   16.8160    3.2300 H   0  0  0  0  0  0  0  0  0  0  0  0
   -4.7850   16.9590    1.4790 C   0  0  0  0  0  0  0  0  0  0  0  0
   -4.6270   17.3820    0.1580 C   0  0  0  0  0  0  0  0  0  0  0  0
   -5.7110   18.0380   -0.4680 C   0  0  0  0  0  0  0  0  0  0  0  0
   -5.6290   18.3800   -1.4960 H   0  0  0  0  0  0  0  0  0  0  0  0
   -3.6090   16.3550    1.8540 N   0  0  0  0  0  0  0  0  0  0  0  0
   -3.4390   15.9480    2.7640 H   0  0  0  0  0  0  0  0  0  0  0  0
   -2.7110   16.3850    0.8210 C   0  0  0  0  0  0  0  0  0  0  0  0
   -1.7280   15.9460    0.9450 H   0  0  0  0  0  0  0  0  0  0  0  0
   -3.3060   17.0130   -0.2590 C   0  0  0  0  0  0  0  0  0  0  0  0
   -2.6860   17.2400   -1.5580 C   0  0  0  0  0  0  0  0  0  0  0  0
   -1.2660   16.7660   -1.8120 C   0  0  0  0  0  0  0  0  0  0  0  0
   -0.2490   17.7060   -1.6600 N   0  0  0  0  0  0  0  0  0  0  0  0
    1.1410   17.2840   -1.8410 C   0  0  0  0  0  0  0  0  0  0  0  0
    1.2390   16.2130   -1.6360 H   0  0  0  0  0  0  0  0  0  0  0  0
    1.3810   17.4410   -2.9000 H   0  0  0  0  0  0  0  0  0  0  0  0
    2.1050   18.0820   -0.9580 C   0  0  0  0  0  0  0  0  0  0  0  0
    3.1350   17.7720   -1.1570 H   0  0  0  0  0  0  0  0  0  0  0  0
    1.8840   17.8820    0.0970 H   0  0  0  0  0  0  0  0  0  0  0  0
    1.9760   19.5340   -1.1520 N   0  0  0  0  0  0  0  0  0  0  0  0
    0.7050   20.0160   -1.7000 C   0  0  0  0  0  0  0  0  0  0  0  0
    0.5170   21.0420   -1.3680 H   0  0  0  0  0  0  0  0  0  0  0  0
    0.8260   20.0410   -2.7900 H   0  0  0  0  0  0  0  0  0  0  0  0
   -0.4790   19.1180   -1.3260 C   0  0  0  0  0  0  0  0  0  0  0  0
   -1.3860   19.4770   -1.8200 H   0  0  0  0  0  0  0  0  0  0  0  0
   -0.6510   19.1570   -0.2440 H   0  0  0  0  0  0  0  0  0  0  0  0
    2.9760   20.4680   -0.8830 C   0  0  0  0  0  0  0  0  0  0  0  0
    4.2140   20.0110   -0.2120 C   0  0  0  0  0  0  0  0  0  0  0  0
    5.4380   20.1960   -0.8620 C   0  0  0  0  0  0  0  0  0  0  0  0
    5.4750   20.6510   -1.8480 H   0  0  0  0  0  0  0  0  0  0  0  0
    6.6170   19.7930   -0.2350 C   0  0  0  0  0  0  0  0  0  0  0  0
    7.5720   19.9280   -0.7350 H   0  0  0  0  0  0  0  0  0  0  0  0
    6.5710   19.2220    1.0390 C   0  0  0  0  0  0  0  0  0  0  0  0
    7.4920   18.9120    1.5260 H   0  0  0  0  0  0  0  0  0  0  0  0
    5.3480   19.0610    1.6950 C   0  0  0  0  0  0  0  0  0  0  0  0
    5.3220   18.6310    2.6920 H   0  0  0  0  0  0  0  0  0  0  0  0
    4.1650   19.4620    1.0740 C   0  0  0  0  0  0  0  0  0  0  0  0
    3.2190   19.3570    1.5980 H   0  0  0  0  0  0  0  0  0  0  0  0
   -3.2540   17.8100   -2.4860 O   0  0  0  0  0  0  0  0  0  0  0  0
   -1.1080   15.5880   -2.1130 O   0  0  0  0  0  0  0  0  0  0  0  0
    2.9020   21.6570   -1.1780 O   0  0  0  0  0  0  0  0  0  0  0  0
  1  2  1  0  0  0  0
  1  3  1  0  0  0  0
  1  9  2  0  0  0  0
  3  4  1  0  0  0  0
  3  5  2  0  0  0  0
  5  6  1  0  0  0  0
  5  7  1  0  0  0  0
  7  8  2  0  0  0  0
  7 11  1  0  0  0  0
  8  9  1  0  0  0  0
  8 15  1  0  0  0  0
  9 10  1  0  0  0  0
 11 12  1  0  0  0  0
 11 13  1  0  0  0  0
 13 14  1  0  0  0  0
 13 15  2  0  0  0  0
 15 16  1  0  0  0  0
 16 17  1  0  0  0  0
 16 44  2  0  0  0  0
 17 18  1  0  0  0  0
 17 45  2  0  0  0  0
 18 19  1  0  0  0  0
 18 29  1  0  0  0  0
 19 20  1  0  0  0  0
 19 21  1  0  0  0  0
 19 22  1  0  0  0  0
 22 23  1  0  0  0  0
 22 24  1  0  0  0  0
 22 25  1  0  0  0  0
 25 26  1  0  0  0  0
 25 32  1  0  0  0  0
 26 27  1  0  0  0  0
 26 28  1  0  0  0  0
 26 29  1  0  0  0  0
 29 30  1  0  0  0  0
 29 31  1  0  0  0  0
 32 33  1  0  0  0  0
 32 46  2  0  0  0  0
 33 34  1  0  0  0  0
 33 42  2  0  0  0  0
 34 35  1  0  0  0  0
 34 36  2  0  0  0  0
 36 37  1  0  0  0  0
 36 38  1  0  0  0  0
 38 39  1  0  0  0  0
 38 40  2  0  0  0  0
 40 41  1  0  0  0  0
 40 42  1  0  0  0  0
 42 43  1  0  0  0  0
M  END
>  <Activity>
6.8153

>  <AM1_dipole>
5.33856

>  <AM1_E>
-104466

>  <AM1_Eele>
-774587

>  <AM1_HF>
3.78626

>  <AM1_HOMO>
-8.85811

>  <AM1_IP>
8.85811

>  <AM1_LUMO>
-0.48256

>  <diameter>
15

>  <petitjean>
0.466667

>  <petitjeanSC>
0.875

>  <radius>
8

>  <VDistEq>
3.64907

>  <VDistMa>
9.18451

>  <weinerPath>
2023

>  <weinerPol>
44

>  <BCUT_PEOE_0>
-2.71189

>  <BCUT_PEOE_1>
-0.639441

>  <BCUT_PEOE_2>
0.655429

>  <BCUT_PEOE_3>
2.65022

>  <BCUT_SLOGP_0>
-2.86001

>  <BCUT_SLOGP_1>
-0.53808

>  <BCUT_SLOGP_2>
0.719956

>  <BCUT_SLOGP_3>
2.50341

>  <BCUT_SMR_0>
-2.43203

>  <BCUT_SMR_1>
-0.43338

>  <BCUT_SMR_2>
0.826244

>  <BCUT_SMR_3>
2.92024

>  <GCUT_PEOE_0>
-0.860602

>  <GCUT_PEOE_1>
-0.403742

>  <GCUT_PEOE_2>
0.080099

>  <GCUT_PEOE_3>
2.64794

>  <GCUT_SLOGP_0>
-0.976484

>  <GCUT_SLOGP_1>
-0.335835

>  <GCUT_SLOGP_2>
0.142683

>  <GCUT_SLOGP_3>
2.62992

>  <GCUT_SMR_0>
-0.508912

>  <GCUT_SMR_1>
-0.216057

>  <GCUT_SMR_2>
0.193051

>  <GCUT_SMR_3>
2.92024

>  <a_aro>
15

>  <a_count>
46

>  <a_IC>
71.6248

>  <a_ICM>
1.55706

>  <a_nH>
19

>  <b_1rotN>
5

>  <b_1rotR>
0.166667

>  <b_ar>
16

>  <b_count>
49

>  <b_double>
3

>  <b_rotN>
5

>  <b_rotR>
0.166667

>  <b_single>
30

>  <b_triple>
0

>  <chi0v>
14.7211

>  <chi0v_C>
12.1019

>  <chi1v>
8.88988

>  <chi1v_C>
6.02671

>  <chiral>
0

>  <chiral_u>
0

>  <nmol>
1

>  <reactive>
0

>  <rings>
4

>  <Weight>
361.401

>  <a_heavy>
27

>  <a_nB>
0

>  <a_nBr>
0

>  <a_nC>
21

>  <a_nCl>
0

>  <a_nF>
0

>  <a_nI>
0

>  <a_nN>
3

>  <a_nO>
3

>  <a_nP>
0

>  <a_nS>
0

>  <b_heavy>
30

>  <chi0>
18.8028

>  <chi0_C>
13.9409

>  <chi1>
13.1479

>  <chi1_C>
8.20791

>  <FCharge>
0

>  <VAdjEq>
0.410248

>  <VAdjMa>
5.90689

>  <zagreb>
144

>  <balabanJ>
1.27297

>  <PEOE_PC+>
2.33296

>  <PEOE_PC->
-2.33296

>  <PEOE_RPC+>
0.126491

>  <PEOE_RPC->
0.154287

>  <PEOE_VSA+0>
80.6318

>  <PEOE_VSA+1>
78.9855

>  <PEOE_VSA+2>
0

>  <PEOE_VSA+3>
8.61901

>  <PEOE_VSA+4>
0

>  <PEOE_VSA+5>
34.3576

>  <PEOE_VSA+6>
0

>  <PEOE_VSA-0>
36.7647

>  <PEOE_VSA-1>
73.5294

>  <PEOE_VSA-2>
0

>  <PEOE_VSA-3>
0

>  <PEOE_VSA-4>
0

>  <PEOE_VSA-5>
40.7008

>  <PEOE_VSA-6>
0.136891

>  <PEOE_VSA_FHYD>
0.787419

>  <PEOE_VSA_FNEG>
0.427257

>  <PEOE_VSA_FPNEG>
0.11545

>  <PEOE_VSA_FPOL>
0.212581

>  <PEOE_VSA_FPOS>
0.572743

>  <PEOE_VSA_FPPOS>
0.0971306

>  <PEOE_VSA_HYD>
278.53

>  <PEOE_VSA_NEG>
151.132

>  <PEOE_VSA_PNEG>
40.8377

>  <PEOE_VSA_POL>
75.1952

>  <PEOE_VSA_POS>
202.594

>  <PEOE_VSA_PPOS>
34.3576

>  <PC+>
4.919

>  <PC->
-4.92

>  <Q_PC+>
4.919

>  <Q_PC->
-4.92

>  <Q_RPC+>
0.13336

>  <Q_RPC->
0.134146

>  <Q_VSA_FHYD>
0.566917

>  <Q_VSA_FNEG>
0.499395

>  <Q_VSA_FPNEG>
0.162405

>  <Q_VSA_FPOL>
0.433083

>  <Q_VSA_FPOS>
0.500605

>  <Q_VSA_FPPOS>
0.270678

>  <Q_VSA_HYD>
200.533

>  <Q_VSA_NEG>
176.649

>  <Q_VSA_PNEG>
57.4467

>  <Q_VSA_POL>
153.193

>  <Q_VSA_POS>
177.077

>  <Q_VSA_PPOS>
95.7459

>  <RPC+>
0.13336

>  <RPC->
0.134146

>  <lip_acc>
6

>  <lip_don>
1

>  <lip_druglike>
1

>  <lip_violation>
0

>  <opr_brigid>
22

>  <opr_leadlike>
1

>  <opr_nring>
4

>  <opr_nrot>
5

>  <opr_violation>
0

>  <E>
93.2657

>  <E_ang>
6.81649

>  <E_ele>
31.3675

>  <E_nb>
76.3384

>  <E_oop>
0.046439

>  <E_sol>
-21.0015

>  <E_stb>
0.279445

>  <E_str>
5.81808

>  <E_strain>
0.00466769

>  <E_tor>
3.96676

>  <E_vdw>
44.9709

>  <E_rele>
0

>  <E_rnb>
1.42109e-014

>  <E_rsol>
1.42109e-014

>  <E_rvdw>
0

>  <Kier1>
20.28

>  <Kier2>
9.21202

>  <Kier3>
4.45184

>  <KierA1>
13.6934

>  <KierA2>
6.1176

>  <KierA3>
2.91998

>  <KierFlex>
3.10263

>  <logS>
-4.02959

>  <MNDO_dipole>
6.51511

>  <MNDO_E>
-104688

>  <MNDO_Eele>
-766054

>  <MNDO_HF>
-15.4637

>  <MNDO_HOMO>
-8.84192

>  <MNDO_IP>
8.84192

>  <MNDO_LUMO>
-0.47947

>  <apol>
55.3351

>  <bpol>
28.2649

>  <mr>
10.2773

>  <dipole>
1.53685

>  <dipoleX>
0.55218

>  <dipoleY>
-0.553063

>  <dipoleZ>
1.3233

>  <pmi>
7657.16

>  <pmiX>
6123.31

>  <pmiY>
831.201

>  <pmiZ>
702.649

>  <rgyr>
4.60298

>  <a_acc>
3

>  <a_acid>
0

>  <a_base>
0

>  <a_don>
1

>  <a_hyd>
18

>  <vsa_acc>
40.7008

>  <vsa_acid>
0

>  <vsa_base>
0

>  <vsa_don>
5.68258

>  <vsa_hyd>
257.099

>  <vsa_other>
34.3576

>  <vsa_pol>
46.3833

>  <PM3_dipole>
5.73915

>  <PM3_E>
-95642.3

>  <PM3_Eele>
-756157

>  <PM3_HF>
-30.9302

>  <PM3_HOMO>
-8.81453

>  <PM3_IP>
8.81453

>  <PM3_LUMO>
-0.54261

>  <SlogP>
2.3352

>  <SlogP_VSA0>
0

>  <SlogP_VSA1>
22.4538

>  <SlogP_VSA2>
40.6477

>  <SlogP_VSA3>
73.7583

>  <SlogP_VSA4>
54.0956

>  <SlogP_VSA5>
0

>  <SlogP_VSA6>
0

>  <SlogP_VSA7>
180.72

>  <SlogP_VSA8>
0

>  <SlogP_VSA9>
0

>  <SMR>
10.1555

>  <SMR_VSA0>
71.5866

>  <SMR_VSA1>
6.24863

>  <SMR_VSA2>
16.7855

>  <SMR_VSA3>
6.37115

>  <SMR_VSA4>
4.7171

>  <SMR_VSA5>
176.003

>  <SMR_VSA6>
89.9635

>  <SMR_VSA7>
0

>  <ASA>
618.998

>  <ASA+>
256.196

>  <ASA->
257.731

>  <ASA_H>
465.158

>  <ASA_P>
153.84

>  <CASA+>
1260.23

>  <CASA->
1268.04

>  <DASA>
1.53535

>  <DCASA>
7.81012

>  <FASA+>
0.413889

>  <FASA->
0.416369

>  <FASA_H>
0.75147

>  <FASA_P>
0.24853

>  <FCASA+>
2.03592

>  <FCASA->
2.04854

>  <VSA>
380.636

>  <TPSA>
73.48

>  <density>
0.744172

>  <vdw_area>
353.726

>  <vdw_vol>
485.642

>  <vsurf_A>
2.98428

>  <vsurf_CP>
0.14742

>  <vsurf_CW1>
2.67021

>  <vsurf_CW2>
2.07927

>  <vsurf_CW3>
1.28296

>  <vsurf_CW4>
0.540504

>  <vsurf_CW5>
0.216738

>  <vsurf_CW6>
0.0657855

>  <vsurf_CW7>
0.00372143

>  <vsurf_CW8>
0

>  <vsurf_D1>
880.375

>  <vsurf_D2>
520.125

>  <vsurf_D3>
392.75

>  <vsurf_D4>
339.625

>  <vsurf_D5>
293.25

>  <vsurf_D6>
235.375

>  <vsurf_D7>
131.75

>  <vsurf_D8>
74.125

>  <vsurf_DD12>
3.20156

>  <vsurf_DD13>
4.63681

>  <vsurf_DD23>
1.65831

>  <vsurf_DW12>
0.707107

>  <vsurf_DW13>
0.5

>  <vsurf_DW23>
0.866025

>  <vsurf_EDmin1>
-2.65286

>  <vsurf_EDmin2>
-2.60683

>  <vsurf_EDmin3>
-2.60544

>  <vsurf_EWmin1>
-5.21725

>  <vsurf_EWmin2>
-5.20574

>  <vsurf_EWmin3>
-5.15623

>  <vsurf_G>
1.34029

>  <vsurf_HB1>
301.375

>  <vsurf_HB2>
318.25

>  <vsurf_HB3>
287.375

>  <vsurf_HB4>
101

>  <vsurf_HB5>
31.625

>  <vsurf_HB6>
8.125

>  <vsurf_HB7>
1

>  <vsurf_HB8>
0

>  <vsurf_HL1>
0.0957989

>  <vsurf_HL2>
0.0283401

>  <vsurf_ID1>
0.934328

>  <vsurf_ID2>
0.967883

>  <vsurf_ID3>
1.03458

>  <vsurf_ID4>
1.12097

>  <vsurf_ID5>
1.24912

>  <vsurf_ID6>
1.30236

>  <vsurf_ID7>
1.09308

>  <vsurf_ID8>
0.922572

>  <vsurf_IW1>
0.0729098

>  <vsurf_IW2>
0.635833

>  <vsurf_IW3>
1.2484

>  <vsurf_IW4>
1.83694

>  <vsurf_IW5>
1.964

>  <vsurf_IW6>
2.51427

>  <vsurf_IW7>
3.22528

>  <vsurf_IW8>
0

>  <vsurf_R>
1.43728

>  <vsurf_S>
562.519

>  <vsurf_V>
808.5

>  <vsurf_W1>
1353.13

>  <vsurf_W2>
772.5

>  <vsurf_W3>
368.375

>  <vsurf_W4>
117.625

>  <vsurf_W5>
37.625

>  <vsurf_W6>
9.625

>  <vsurf_W7>
1

>  <vsurf_W8>
0

>  <vsurf_Wp1>
1051.75

>  <vsurf_Wp2>
454.25

>  <vsurf_Wp3>
81

>  <vsurf_Wp4>
16.625

>  <vsurf_Wp5>
6

>  <vsurf_Wp6>
1.5

>  <vsurf_Wp7>
0

>  <vsurf_Wp8>
0

>  <dens>
1.0483

>  <glob>
0.0701214

>  <std_dim1>
4.45411

>  <std_dim2>
1.59497

>  <std_dim3>
1.17947

>  <vol>
344.75

>  <logP(o/w)>
2.083

$$$$
D1.cdx
  MOE2008           3D

 46 49  0  0  0  0  0  0  0  0999 V2000
   -6.9640   14.1260    1.2620 C   0  0  0  0  0  0  0  0  0  0  0  0
   -7.7910   14.8300    1.2380 H   0  0  0  0  0  0  0  0  0  0  0  0
   -7.0230   13.0020    2.0790 C   0  0  0  0  0  0  0  0  0  0  0  0
   -7.9020   12.8300    2.6950 H   0  0  0  0  0  0  0  0  0  0  0  0
   -5.9670   12.0880    2.1170 C   0  0  0  0  0  0  0  0  0  0  0  0
   -6.0180   11.2100    2.7540 H   0  0  0  0  0  0  0  0  0  0  0  0
   -4.8510   12.3420    1.3080 C   0  0  0  0  0  0  0  0  0  0  0  0
   -4.7540   13.4610    0.4730 C   0  0  0  0  0  0  0  0  0  0  0  0
   -5.8420   14.3610    0.4630 C   0  0  0  0  0  0  0  0  0  0  0  0
   -3.6950   11.6160    1.1530 N   0  0  0  0  0  0  0  0  0  0  0  0
   -3.4950   10.7480    1.6340 H   0  0  0  0  0  0  0  0  0  0  0  0
   -2.8660   12.2340    0.2590 C   0  0  0  0  0  0  0  0  0  0  0  0
   -1.9080   11.7900    0.0160 H   0  0  0  0  0  0  0  0  0  0  0  0
   -3.4860   13.3840   -0.1990 C   0  0  0  0  0  0  0  0  0  0  0  0
   -2.9180   14.3030   -1.1810 C   0  0  0  0  0  0  0  0  0  0  0  0
   -1.5470   14.0210   -1.7710 C   0  0  0  0  0  0  0  0  0  0  0  0
   -0.4680   14.7250   -1.2400 N   0  0  0  0  0  0  0  0  0  0  0  0
    0.8770   14.4440   -1.7440 C   0  0  0  0  0  0  0  0  0  0  0  0
    0.9290   13.4190   -2.1260 H   0  0  0  0  0  0  0  0  0  0  0  0
    1.0430   15.1200   -2.5920 H   0  0  0  0  0  0  0  0  0  0  0  0
    1.9530   14.6640   -0.6770 C   0  0  0  0  0  0  0  0  0  0  0  0
    2.9440   14.4870   -1.1070 H   0  0  0  0  0  0  0  0  0  0  0  0
    1.8040   13.9540    0.1450 H   0  0  0  0  0  0  0  0  0  0  0  0
    1.8960   16.0120   -0.0910 N   0  0  0  0  0  0  0  0  0  0  0  0
    0.6100   16.7100   -0.1690 C   0  0  0  0  0  0  0  0  0  0  0  0
    0.5120   17.4090    0.6690 H   0  0  0  0  0  0  0  0  0  0  0  0
    0.6320   17.3030   -1.0910 H   0  0  0  0  0  0  0  0  0  0  0  0
   -0.5850   15.7500   -0.1940 C   0  0  0  0  0  0  0  0  0  0  0  0
   -1.5110   16.3170   -0.3250 H   0  0  0  0  0  0  0  0  0  0  0  0
   -0.6560   15.2130    0.7600 H   0  0  0  0  0  0  0  0  0  0  0  0
    2.9740   16.6750    0.4950 C   0  0  0  0  0  0  0  0  0  0  0  0
    4.2370   15.9310    0.7050 C   0  0  0  0  0  0  0  0  0  0  0  0
    4.2700   14.8010    1.5290 C   0  0  0  0  0  0  0  0  0  0  0  0
    3.3690   14.4490    2.0240 H   0  0  0  0  0  0  0  0  0  0  0  0
    5.4760   14.1310    1.7280 C   0  0  0  0  0  0  0  0  0  0  0  0
    5.5120   13.2500    2.3640 H   0  0  0  0  0  0  0  0  0  0  0  0
    6.6430   14.5970    1.1200 C   0  0  0  0  0  0  0  0  0  0  0  0
    7.5830   14.0750    1.2800 H   0  0  0  0  0  0  0  0  0  0  0  0
    6.6110   15.7390    0.3170 C   0  0  0  0  0  0  0  0  0  0  0  0
    7.5260   16.1060   -0.1430 H   0  0  0  0  0  0  0  0  0  0  0  0
    5.4080   16.4150    0.1130 C   0  0  0  0  0  0  0  0  0  0  0  0
    5.3850   17.3110   -0.5020 H   0  0  0  0  0  0  0  0  0  0  0  0
   -3.4860   15.3160   -1.5780 O   0  0  0  0  0  0  0  0  0  0  0  0
   -1.4760   13.1790   -2.6600 O   0  0  0  0  0  0  0  0  0  0  0  0
    2.9490   17.8510    0.8460 O   0  0  0  0  0  0  0  0  0  0  0  0
   -5.8400   15.4620   -0.3020 F   0  0  0  0  0  0  0  0  0  0  0  0
  1  2  1  0  0  0  0
  1  3  1  0  0  0  0
  1  9  2  0  0  0  0
  3  4  1  0  0  0  0
  3  5  2  0  0  0  0
  5  6  1  0  0  0  0
  5  7  1  0  0  0  0
  7  8  2  0  0  0  0
  7 10  1  0  0  0  0
  8  9  1  0  0  0  0
  8 14  1  0  0  0  0
  9 46  1  0  0  0  0
 10 11  1  0  0  0  0
 10 12  1  0  0  0  0
 12 13  1  0  0  0  0
 12 14  2  0  0  0  0
 14 15  1  0  0  0  0
 15 16  1  0  0  0  0
 15 43  2  0  0  0  0
 16 17  1  0  0  0  0
 16 44  2  0  0  0  0
 17 18  1  0  0  0  0
 17 28  1  0  0  0  0
 18 19  1  0  0  0  0
 18 20  1  0  0  0  0
 18 21  1  0  0  0  0
 21 22  1  0  0  0  0
 21 23  1  0  0  0  0
 21 24  1  0  0  0  0
 24 25  1  0  0  0  0
 24 31  1  0  0  0  0
 25 26  1  0  0  0  0
 25 27  1  0  0  0  0
 25 28  1  0  0  0  0
 28 29  1  0  0  0  0
 28 30  1  0  0  0  0
 31 32  1  0  0  0  0
 31 45  2  0  0  0  0
 32 33  1  0  0  0  0
 32 41  2  0  0  0  0
 33 34  1  0  0  0  0
 33 35  2  0  0  0  0
 35 36  1  0  0  0  0
 35 37  1  0  0  0  0
 37 38  1  0  0  0  0
 37 39  2  0  0  0  0
 39 40  1  0  0  0  0
 39 41  1  0  0  0  0
 41 42  1  0  0  0  0
M  END
>  <Activity>
8.5867

>  <AM1_dipole>
6.68951

>  <AM1_E>
-115333

>  <AM1_Eele>
-835398

>  <AM1_HF>
-38.7837

>  <AM1_HOMO>
-8.84965

>  <AM1_IP>
8.84965

>  <AM1_LUMO>
-0.60605

>  <diameter>
15

>  <petitjean>
0.466667

>  <petitjeanSC>
0.875

>  <radius>
8

>  <VDistEq>
3.66276

>  <VDistMa>
9.29304

>  <weinerPath>
2210

>  <weinerPol>
47

>  <BCUT_PEOE_0>
-2.71188

>  <BCUT_PEOE_1>
-0.639824

>  <BCUT_PEOE_2>
0.645599

>  <BCUT_PEOE_3>
2.65028

>  <BCUT_SLOGP_0>
-2.86001

>  <BCUT_SLOGP_1>
-0.53808

>  <BCUT_SLOGP_2>
0.776123

>  <BCUT_SLOGP_3>
2.50334

>  <BCUT_SMR_0>
-2.43203

>  <BCUT_SMR_1>
-0.433377

>  <BCUT_SMR_2>
0.826276

>  <BCUT_SMR_3>
2.92024

>  <GCUT_PEOE_0>
-0.859949

>  <GCUT_PEOE_1>
-0.403743

>  <GCUT_PEOE_2>
0.080099

>  <GCUT_PEOE_3>
2.65156

>  <GCUT_SLOGP_0>
-0.976487

>  <GCUT_SLOGP_1>
-0.336589

>  <GCUT_SLOGP_2>
0.164454

>  <GCUT_SLOGP_3>
2.62884

>  <GCUT_SMR_0>
-0.508913

>  <GCUT_SMR_1>
-0.216057

>  <GCUT_SMR_2>
0.193051

>  <GCUT_SMR_3>
2.92007

>  <a_aro>
15

>  <a_count>
46

>  <a_IC>
77.2768

>  <a_ICM>
1.67993

>  <a_nH>
18

>  <b_1rotN>
5

>  <b_1rotR>
0.16129

>  <b_ar>
16

>  <b_count>
49

>  <b_double>
3

>  <b_rotN>
5

>  <b_rotR>
0.16129

>  <b_single>
30

>  <b_triple>
0

>  <chi0v>
15.0217

>  <chi0v_C>
12.0246

>  <chi1v>
8.99553

>  <chi1v_C>
5.94338

>  <chiral>
0

>  <chiral_u>
0

>  <nmol>
1

>  <reactive>
0

>  <rings>
4

>  <Weight>
379.391

>  <a_heavy>
28

>  <a_nB>
0

>  <a_nBr>
0

>  <a_nC>
21

>  <a_nCl>
0

>  <a_nF>
1

>  <a_nI>
0

>  <a_nN>
3

>  <a_nO>
3

>  <a_nP>
0

>  <a_nS>
0

>  <b_heavy>
31

>  <chi0>
19.673

>  <chi0_C>
13.8112

>  <chi1>
13.5586

>  <chi1_C>
8.04124

>  <FCharge>
0

>  <VAdjEq>
0.398935

>  <VAdjMa>
5.9542

>  <zagreb>
150

>  <balabanJ>
1.29268

>  <PEOE_PC+>
2.44754

>  <PEOE_PC->
-2.44754

>  <PEOE_RPC+>
0.12057

>  <PEOE_RPC->
0.147035

>  <PEOE_VSA+0>
80.6318

>  <PEOE_VSA+1>
74.7201

>  <PEOE_VSA+2>
9.02085

>  <PEOE_VSA+3>
8.61901

>  <PEOE_VSA+4>
0

>  <PEOE_VSA+5>
34.3576

>  <PEOE_VSA+6>
0

>  <PEOE_VSA-0>
49.0196

>  <PEOE_VSA-1>
49.0196

>  <PEOE_VSA-2>
0

>  <PEOE_VSA-3>
0

>  <PEOE_VSA-4>
11.9086

>  <PEOE_VSA-5>
40.7008

>  <PEOE_VSA-6>
0.136891

>  <PEOE_VSA_FHYD>
0.756785

>  <PEOE_VSA_FNEG>
0.42103

>  <PEOE_VSA_FPNEG>
0.14728

>  <PEOE_VSA_FPOL>
0.243215

>  <PEOE_VSA_FPOS>
0.57897

>  <PEOE_VSA_FPPOS>
0.0959347

>  <PEOE_VSA_HYD>
271.031

>  <PEOE_VSA_NEG>
150.786

>  <PEOE_VSA_PNEG>
52.7463

>  <PEOE_VSA_POL>
87.1039

>  <PEOE_VSA_POS>
207.349

>  <PEOE_VSA_PPOS>
34.3576

>  <PC+>
4.959

>  <PC->
-4.96

>  <Q_PC+>
4.959

>  <Q_PC->
-4.96

>  <Q_RPC+>
0.132285

>  <Q_RPC->
0.133065

>  <Q_VSA_FHYD>
0.572249

>  <Q_VSA_FNEG>
0.49228

>  <Q_VSA_FPNEG>
0.160405

>  <Q_VSA_FPOL>
0.427751

>  <Q_VSA_FPOS>
0.50772

>  <Q_VSA_FPPOS>
0.267346

>  <Q_VSA_HYD>
204.942

>  <Q_VSA_NEG>
176.303

>  <Q_VSA_PNEG>
57.4467

>  <Q_VSA_POL>
153.193

>  <Q_VSA_POS>
181.832

>  <Q_VSA_PPOS>
95.7459

>  <RPC+>
0.132285

>  <RPC->
0.133065

>  <lip_acc>
6

>  <lip_don>
1

>  <lip_druglike>
1

>  <lip_violation>
0

>  <opr_brigid>
22

>  <opr_leadlike>
1

>  <opr_nring>
4

>  <opr_nrot>
5

>  <opr_violation>
0

>  <E>
95.6543

>  <E_ang>
7.09793

>  <E_ele>
33.3955

>  <E_nb>
78.2888

>  <E_oop>
0.0515291

>  <E_sol>
-21.1264

>  <E_stb>
0.411429

>  <E_str>
5.89647

>  <E_strain>
0.00424582

>  <E_tor>
3.90814

>  <E_vdw>
44.8933

>  <E_rele>
0

>  <E_rnb>
-1.42109e-014

>  <E_rsol>
-1.42109e-014

>  <E_rvdw>
0

>  <Kier1>
21.2404

>  <Kier2>
9.42769

>  <Kier3>
4.54179

>  <KierA1>
14.4569

>  <KierA2>
6.31723

>  <KierA3>
3.00956

>  <KierFlex>
3.26171

>  <logS>
-4.32457

>  <MNDO_dipole>
7.67381

>  <MNDO_E>
-115417

>  <MNDO_Eele>
-828419

>  <MNDO_HF>
-59.1753

>  <MNDO_HOMO>
-8.90906

>  <MNDO_IP>
8.90906

>  <MNDO_LUMO>
-0.69004

>  <apol>
55.2253

>  <bpol>
28.3747

>  <mr>
10.353

>  <dipole>
1.94689

>  <dipoleX>
0.58618

>  <dipoleY>
-1.56417

>  <dipoleZ>
1.00006

>  <pmi>
8287.18

>  <pmiX>
6776.46

>  <pmiY>
924.492

>  <pmiZ>
586.229

>  <rgyr>
4.67369

>  <a_acc>
3

>  <a_acid>
0

>  <a_base>
0

>  <a_don>
1

>  <a_hyd>
19

>  <vsa_acc>
40.7008

>  <vsa_acid>
0

>  <vsa_base>
0

>  <vsa_don>
5.68258

>  <vsa_hyd>
262.22

>  <vsa_other>
34.3576

>  <vsa_pol>
46.3833

>  <PM3_dipole>
7.57605

>  <PM3_E>
-105438

>  <PM3_Eele>
-816372

>  <PM3_HF>
-43.1048

>  <PM3_HOMO>
-8.91085

>  <PM3_IP>
8.91085

>  <PM3_LUMO>
-0.68876

>  <SlogP>
2.4743

>  <SlogP_VSA0>
0

>  <SlogP_VSA1>
22.4538

>  <SlogP_VSA2>
49.7688

>  <SlogP_VSA3>
73.7583

>  <SlogP_VSA4>
54.0956

>  <SlogP_VSA5>
0

>  <SlogP_VSA6>
0

>  <SlogP_VSA7>
163.077

>  <SlogP_VSA8>
0

>  <SlogP_VSA9>
14.9601

>  <SMR>
10.1513

>  <SMR_VSA0>
71.5866

>  <SMR_VSA1>
21.2087

>  <SMR_VSA2>
25.9065

>  <SMR_VSA3>
6.37115

>  <SMR_VSA4>
4.7171

>  <SMR_VSA5>
158.36

>  <SMR_VSA6>
89.9635

>  <SMR_VSA7>
0

>  <ASA>
630.043

>  <ASA+>
255.225

>  <ASA->
265.594

>  <ASA_H>
475.939

>  <ASA_P>
154.103

>  <CASA+>
1265.66

>  <CASA->
1317.35

>  <DASA>
10.3689

>  <DCASA>
51.6847

>  <FASA+>
0.405092

>  <FASA->
0.421549

>  <FASA_H>
0.755408

>  <FASA_P>
0.244592

>  <FCASA+>
2.00885

>  <FCASA->
2.09088

>  <VSA>
381.336

>  <TPSA>
73.48

>  <density>
0.776193

>  <vdw_area>
358.135

>  <vdw_vol>
488.784

>  <vsurf_A>
3.37402

>  <vsurf_CP>
0.120078

>  <vsurf_CW1>
2.67518

>  <vsurf_CW2>
2.14355

>  <vsurf_CW3>
1.35829

>  <vsurf_CW4>
0.628042

>  <vsurf_CW5>
0.257271

>  <vsurf_CW6>
0.071765

>  <vsurf_CW7>
0.00604543

>  <vsurf_CW8>
0

>  <vsurf_D1>
852.625

>  <vsurf_D2>
499

>  <vsurf_D3>
374

>  <vsurf_D4>
318.25

>  <vsurf_D5>
275.75

>  <vsurf_D6>
223.875

>  <vsurf_D7>
127.5

>  <vsurf_D8>
70.25

>  <vsurf_DD12>
0.5

>  <vsurf_DD13>
3.20156

>  <vsurf_DD23>
2.91548

>  <vsurf_DW12>
0.5

>  <vsurf_DW13>
5.5

>  <vsurf_DW23>
5.78792

>  <vsurf_EDmin1>
-2.6552

>  <vsurf_EDmin2>
-2.6234

>  <vsurf_EDmin3>
-2.59424

>  <vsurf_EWmin1>
-5.51481

>  <vsurf_EWmin2>
-5.38159

>  <vsurf_EWmin3>
-5.24773

>  <vsurf_G>
1.3444

>  <vsurf_HB1>
313.625

>  <vsurf_HB2>
361.875

>  <vsurf_HB3>
323.5

>  <vsurf_HB4>
123.875

>  <vsurf_HB5>
37.25

>  <vsurf_HB6>
9.5

>  <vsurf_HB7>
1.25

>  <vsurf_HB8>
0

>  <vsurf_HL1>
0.116644

>  <vsurf_HL2>
0.0349568

>  <vsurf_ID1>
1.30781

>  <vsurf_ID2>
1.34732

>  <vsurf_ID3>
1.41305

>  <vsurf_ID4>
1.61838

>  <vsurf_ID5>
1.80621

>  <vsurf_ID6>
1.78714

>  <vsurf_ID7>
1.46285

>  <vsurf_ID8>
1.13806

>  <vsurf_IW1>
0.161988

>  <vsurf_IW2>
0.670768

>  <vsurf_IW3>
1.37184

>  <vsurf_IW4>
1.98885

>  <vsurf_IW5>
2.00894

>  <vsurf_IW6>
2.20148

>  <vsurf_IW7>
3.29951

>  <vsurf_IW8>
0

>  <vsurf_R>
1.43532

>  <vsurf_S>
566.162

>  <vsurf_V>
812.625

>  <vsurf_W1>
1373.38

>  <vsurf_W2>
812.375

>  <vsurf_W3>
405.625

>  <vsurf_W4>
140.25

>  <vsurf_W5>
43.625

>  <vsurf_W6>
11.125

>  <vsurf_W7>
1.25

>  <vsurf_W8>
0

>  <vsurf_Wp1>
1059.75

>  <vsurf_Wp2>
450.5

>  <vsurf_Wp3>
82.125

>  <vsurf_Wp4>
16.375

>  <vsurf_Wp5>
6.375

>  <vsurf_Wp6>
1.625

>  <vsurf_Wp7>
0

>  <vsurf_Wp8>
0

>  <dens>
1.08669

>  <glob>
0.0682332

>  <std_dim1>
4.49649

>  <std_dim2>
1.59035

>  <std_dim3>
1.17455

>  <vol>
349.125

>  <logP(o/w)>
2.234

$$$$
D1.cdx
  MOE2008           3D

 46 49  0  0  0  0  0  0  0  0999 V2000
   -6.8870    9.9700    0.7480 C   0  0  0  0  0  0  0  0  0  0  0  0
   -7.8930   10.3010    0.5030 H   0  0  0  0  0  0  0  0  0  0  0  0
   -6.6890    9.1170    1.8240 C   0  0  0  0  0  0  0  0  0  0  0  0
   -7.5380    8.7940    2.4210 H   0  0  0  0  0  0  0  0  0  0  0  0
   -5.4110    8.6550    2.1370 C   0  0  0  0  0  0  0  0  0  0  0  0
   -5.2630    7.9740    2.9710 H   0  0  0  0  0  0  0  0  0  0  0  0
   -4.3350    9.0860    1.3470 C   0  0  0  0  0  0  0  0  0  0  0  0
   -4.4730    9.9700    0.2630 C   0  0  0  0  0  0  0  0  0  0  0  0
   -5.7980   10.3850   -0.0250 C   0  0  0  0  0  0  0  0  0  0  0  0
   -3.0080    8.7510    1.4490 N   0  0  0  0  0  0  0  0  0  0  0  0
   -2.6260    8.1220    2.1430 H   0  0  0  0  0  0  0  0  0  0  0  0
   -2.2870    9.3870    0.4840 C   0  0  0  0  0  0  0  0  0  0  0  0
   -1.2160    9.2350    0.4260 H   0  0  0  0  0  0  0  0  0  0  0  0
   -3.1410   10.1890   -0.2580 C   0  0  0  0  0  0  0  0  0  0  0  0
   -2.6630   11.0650   -1.3260 C   0  0  0  0  0  0  0  0  0  0  0  0
   -1.3180   10.7850   -1.9750 C   0  0  0  0  0  0  0  0  0  0  0  0
   -0.2230   11.5030   -1.4940 N   0  0  0  0  0  0  0  0  0  0  0  0
    1.1050   11.2330   -2.0470 C   0  0  0  0  0  0  0  0  0  0  0  0
    1.1370   10.2310   -2.4860 H   0  0  0  0  0  0  0  0  0  0  0  0
    1.2600   11.9540   -2.8590 H   0  0  0  0  0  0  0  0  0  0  0  0
    2.2050   11.3820   -0.9920 C   0  0  0  0  0  0  0  0  0  0  0  0
    3.1860   11.2270   -1.4500 H   0  0  0  0  0  0  0  0  0  0  0  0
    2.0670   10.6240   -0.2120 H   0  0  0  0  0  0  0  0  0  0  0  0
    2.1730   12.6920   -0.3220 N   0  0  0  0  0  0  0  0  0  0  0  0
    0.9160   13.4420   -0.3990 C   0  0  0  0  0  0  0  0  0  0  0  0
    0.8350   14.1340    0.4470 H   0  0  0  0  0  0  0  0  0  0  0  0
    0.9700   14.0470   -1.3120 H   0  0  0  0  0  0  0  0  0  0  0  0
   -0.3130   12.5300   -0.4480 C   0  0  0  0  0  0  0  0  0  0  0  0
   -1.2150   13.1310   -0.5940 H   0  0  0  0  0  0  0  0  0  0  0  0
   -0.4180   11.9970    0.5050 H   0  0  0  0  0  0  0  0  0  0  0  0
    3.2520   13.2720    0.3440 C   0  0  0  0  0  0  0  0  0  0  0  0
    4.4960   12.4880    0.5040 C   0  0  0  0  0  0  0  0  0  0  0  0
    4.5060   11.3110    1.2600 C   0  0  0  0  0  0  0  0  0  0  0  0
    3.5980   10.9490    1.7350 H   0  0  0  0  0  0  0  0  0  0  0  0
    5.6990   10.6060    1.4170 C   0  0  0  0  0  0  0  0  0  0  0  0
    5.7190    9.6890    2.0010 H   0  0  0  0  0  0  0  0  0  0  0  0
    6.8760   11.0830    0.8350 C   0  0  0  0  0  0  0  0  0  0  0  0
    7.8050   10.5340    0.9630 H   0  0  0  0  0  0  0  0  0  0  0  0
    6.8660   12.2710    0.1000 C   0  0  0  0  0  0  0  0  0  0  0  0
    7.7870   12.6450   -0.3390 H   0  0  0  0  0  0  0  0  0  0  0  0
    5.6760   12.9800   -0.0620 C   0  0  0  0  0  0  0  0  0  0  0  0
    5.6710   13.9110   -0.6240 H   0  0  0  0  0  0  0  0  0  0  0  0
   -3.2590   12.0590   -1.7270 O   0  0  0  0  0  0  0  0  0  0  0  0
   -1.2800    9.9360   -2.8580 O   0  0  0  0  0  0  0  0  0  0  0  0
    3.2460   14.4120    0.7990 O   0  0  0  0  0  0  0  0  0  0  0  0
   -6.0790   11.3670   -1.3940 Cl  0  0  0  0  0  0  0  0  0  0  0  0
  1  2  1  0  0  0  0
  1  3  1  0  0  0  0
  1  9  2  0  0  0  0
  3  4  1  0  0  0  0
  3  5  2  0  0  0  0
  5  6  1  0  0  0  0
  5  7  1  0  0  0  0
  7  8  2  0  0  0  0
  7 10  1  0  0  0  0
  8  9  1  0  0  0  0
  8 14  1  0  0  0  0
  9 46  1  0  0  0  0
 10 11  1  0  0  0  0
 10 12  1  0  0  0  0
 12 13  1  0  0  0  0
 12 14  2  0  0  0  0
 14 15  1  0  0  0  0
 15 16  1  0  0  0  0
 15 43  2  0  0  0  0
 16 17  1  0  0  0  0
 16 44  2  0  0  0  0
 17 18  1  0  0  0  0
 17 28  1  0  0  0  0
 18 19  1  0  0  0  0
 18 20  1  0  0  0  0
 18 21  1  0  0  0  0
 21 22  1  0  0  0  0
 21 23  1  0  0  0  0
 21 24  1  0  0  0  0
 24 25  1  0  0  0  0
 24 31  1  0  0  0  0
 25 26  1  0  0  0  0
 25 27  1  0  0  0  0
 25 28  1  0  0  0  0
 28 29  1  0  0  0  0
 28 30  1  0  0  0  0
 31 32  1  0  0  0  0
 31 45  2  0  0  0  0
 32 33  1  0  0  0  0
 32 41  2  0  0  0  0
 33 34  1  0  0  0  0
 33 35  2  0  0  0  0
 35 36  1  0  0  0  0
 35 37  1  0  0  0  0
 37 38  1  0  0  0  0
 37 39  2  0  0  0  0
 39 40  1  0  0  0  0
 39 41  1  0  0  0  0
 41 42  1  0  0  0  0
M  END
>  <Activity>
8.3665

>  <AM1_dipole>
6.28635

>  <AM1_E>
-112764

>  <AM1_Eele>
-829439

>  <AM1_HF>
12.9793

>  <AM1_HOMO>
-8.88365

>  <AM1_IP>
8.88365

>  <AM1_LUMO>
-0.62681

>  <diameter>
15

>  <petitjean>
0.466667

>  <petitjeanSC>
0.875

>  <radius>
8

>  <VDistEq>
3.66276

>  <VDistMa>
9.29304

>  <weinerPath>
2210

>  <weinerPol>
47

>  <BCUT_PEOE_0>
-2.71188

>  <BCUT_PEOE_1>
-0.639574

>  <BCUT_PEOE_2>
0.648322

>  <BCUT_PEOE_3>
2.65025

>  <BCUT_SLOGP_0>
-2.86001

>  <BCUT_SLOGP_1>
-0.53808

>  <BCUT_SLOGP_2>
0.805915

>  <BCUT_SLOGP_3>
2.50365

>  <BCUT_SMR_0>
-2.43203

>  <BCUT_SMR_1>
-0.433114

>  <BCUT_SMR_2>
0.854311

>  <BCUT_SMR_3>
2.92026

>  <GCUT_PEOE_0>
-0.860261

>  <GCUT_PEOE_1>
-0.403743

>  <GCUT_PEOE_2>
0.080099

>  <GCUT_PEOE_3>
2.64979

>  <GCUT_SLOGP_0>
-0.976478

>  <GCUT_SLOGP_1>
-0.308504

>  <GCUT_SLOGP_2>
0.164454

>  <GCUT_SLOGP_3>
2.64064

>  <GCUT_SMR_0>
-0.508905

>  <GCUT_SMR_1>
-0.216057

>  <GCUT_SMR_2>
0.238628

>  <GCUT_SMR_3>
2.92464

>  <a_aro>
15

>  <a_count>
46

>  <a_IC>
77.2768

>  <a_ICM>
1.67993

>  <a_nH>
18

>  <b_1rotN>
5

>  <b_1rotR>
0.16129

>  <b_ar>
16

>  <b_count>
49

>  <b_double>
3

>  <b_rotN>
5

>  <b_rotR>
0.16129

>  <b_single>
30

>  <b_triple>
0

>  <chi0v>
15.7776

>  <chi0v_C>
12.0246

>  <chi1v>
9.37349

>  <chi1v_C>
5.94338

>  <chiral>
0

>  <chiral_u>
0

>  <nmol>
1

>  <reactive>
0

>  <rings>
4

>  <Weight>
395.846

>  <a_heavy>
28

>  <a_nB>
0

>  <a_nBr>
0

>  <a_nC>
21

>  <a_nCl>
1

>  <a_nF>
0

>  <a_nI>
0

>  <a_nN>
3

>  <a_nO>
3

>  <a_nP>
0

>  <a_nS>
0

>  <b_heavy>
31

>  <chi0>
19.673

>  <chi0_C>
13.8112

>  <chi1>
13.5586

>  <chi1_C>
8.04124

>  <FCharge>
0

>  <VAdjEq>
0.398935

>  <VAdjMa>
5.9542

>  <zagreb>
150

>  <balabanJ>
1.29268

>  <PEOE_PC+>
2.34401

>  <PEOE_PC->
-2.34401

>  <PEOE_RPC+>
0.125895

>  <PEOE_RPC->
0.153544

>  <PEOE_VSA+0>
80.6318

>  <PEOE_VSA+1>
79.2398

>  <PEOE_VSA+2>
0

>  <PEOE_VSA+3>
8.61901

>  <PEOE_VSA+4>
0

>  <PEOE_VSA+5>
34.3576

>  <PEOE_VSA+6>
0

>  <PEOE_VSA-0>
49.0196

>  <PEOE_VSA-1>
78.6016

>  <PEOE_VSA-2>
0

>  <PEOE_VSA-3>
0

>  <PEOE_VSA-4>
0

>  <PEOE_VSA-5>
40.7008

>  <PEOE_VSA-6>
0.136891

>  <PEOE_VSA_FHYD>
0.797485

>  <PEOE_VSA_FNEG>
0.453691

>  <PEOE_VSA_FPNEG>
0.109983

>  <PEOE_VSA_FPOL>
0.202515

>  <PEOE_VSA_FPOS>
0.546309

>  <PEOE_VSA_FPPOS>
0.0925314

>  <PEOE_VSA_HYD>
296.112

>  <PEOE_VSA_NEG>
168.459

>  <PEOE_VSA_PNEG>
40.8377

>  <PEOE_VSA_POL>
75.1952

>  <PEOE_VSA_POS>
202.848

>  <PEOE_VSA_PPOS>
34.3576

>  <PC+>
4.946

>  <PC->
-4.947

>  <Q_PC+>
4.946

>  <Q_PC->
-4.947

>  <Q_RPC+>
0.132632

>  <Q_RPC->
0.133414

>  <Q_VSA_FHYD>
0.587424

>  <Q_VSA_FNEG>
0.522414

>  <Q_VSA_FPNEG>
0.154715

>  <Q_VSA_FPOL>
0.412576

>  <Q_VSA_FPOS>
0.477586

>  <Q_VSA_FPPOS>
0.257862

>  <Q_VSA_HYD>
218.115

>  <Q_VSA_NEG>
193.976

>  <Q_VSA_PNEG>
57.4467

>  <Q_VSA_POL>
153.193

>  <Q_VSA_POS>
177.331

>  <Q_VSA_PPOS>
95.7459

>  <RPC+>
0.132632

>  <RPC->
0.133414

>  <lip_acc>
6

>  <lip_don>
1

>  <lip_druglike>
1

>  <lip_violation>
0

>  <opr_brigid>
22

>  <opr_leadlike>
1

>  <opr_nring>
4

>  <opr_nrot>
5

>  <opr_violation>
0

>  <E>
101.94

>  <E_ang>
9.05921

>  <E_ele>
33.4819

>  <E_nb>
80.0369

>  <E_oop>
0.100825

>  <E_sol>
-19.6458

>  <E_stb>
0.550301

>  <E_str>
6.40634

>  <E_strain>
0.0054153

>  <E_tor>
5.78674

>  <E_vdw>
46.555

>  <E_rele>
0

>  <E_rnb>
0

>  <E_rsol>
0

>  <E_rvdw>
0

>  <Kier1>
21.2404

>  <Kier2>
9.42769

>  <Kier3>
4.54179

>  <KierA1>
15.4057

>  <KierA2>
6.75023

>  <KierA3>
3.22214

>  <KierFlex>
3.71401

>  <logS>
-4.76388

>  <MNDO_dipole>
7.46994

>  <MNDO_E>
-112537

>  <MNDO_Eele>
-820973

>  <MNDO_HF>
-18.4382

>  <MNDO_HOMO>
-8.95682

>  <MNDO_IP>
8.95682

>  <MNDO_LUMO>
-0.61366

>  <apol>
56.8483

>  <bpol>
27.5917

>  <mr>
10.7841

>  <dipole>
1.92337

>  <dipoleX>
0.768008

>  <dipoleY>
-1.36473

>  <dipoleZ>
1.1167

>  <pmi>
8856.09

>  <pmiX>
7303.92

>  <pmiY>
877.578

>  <pmiZ>
674.596

>  <rgyr>
4.72997

>  <a_acc>
3

>  <a_acid>
0

>  <a_base>
0

>  <a_don>
1

>  <a_hyd>
19

>  <vsa_acc>
40.7008

>  <vsa_acid>
0

>  <vsa_base>
0

>  <vsa_don>
5.68258

>  <vsa_hyd>
275.392

>  <vsa_other>
34.3576

>  <vsa_pol>
46.3833

>  <PM3_dipole>
5.84224

>  <PM3_E>
-102589

>  <PM3_Eele>
-812245

>  <PM3_HF>
-33.8233

>  <PM3_HOMO>
-8.6433

>  <PM3_IP>
8.6433

>  <PM3_LUMO>
-0.63401

>  <SlogP>
2.9886

>  <SlogP_VSA0>
0

>  <SlogP_VSA1>
22.4538

>  <SlogP_VSA2>
40.6477

>  <SlogP_VSA3>
73.7583

>  <SlogP_VSA4>
54.0956

>  <SlogP_VSA5>
0

>  <SlogP_VSA6>
3.50061

>  <SlogP_VSA7>
163.077

>  <SlogP_VSA8>
0

>  <SlogP_VSA9>
39.1486

>  <SMR>
10.6565

>  <SMR_VSA0>
71.5866

>  <SMR_VSA1>
6.24863

>  <SMR_VSA2>
16.7855

>  <SMR_VSA3>
9.87176

>  <SMR_VSA4>
4.7171

>  <SMR_VSA5>
158.36

>  <SMR_VSA6>
89.9635

>  <SMR_VSA7>
39.1486

>  <ASA>
635.735

>  <ASA+>
243.441

>  <ASA->
287.854

>  <ASA_H>
483.891

>  <ASA_P>
151.844

>  <CASA+>
1204.06

>  <CASA->
1424.01

>  <DASA>
44.4134

>  <DCASA>
219.957

>  <FASA+>
0.382928

>  <FASA->
0.452789

>  <FASA_H>
0.761152

>  <FASA_P>
0.238848

>  <FCASA+>
1.89396

>  <FCASA->
2.23995

>  <VSA>
391.274

>  <TPSA>
73.48

>  <density>
0.78917

>  <vdw_area>
371.307

>  <vdw_vol>
501.598

>  <vsurf_A>
2.46387

>  <vsurf_CP>
0.146979

>  <vsurf_CW1>
2.65529

>  <vsurf_CW2>
2.11046

>  <vsurf_CW3>
1.23885

>  <vsurf_CW4>
0.527495

>  <vsurf_CW5>
0.2245

>  <vsurf_CW6>
0.0711584

>  <vsurf_CW7>
0.0066568

>  <vsurf_CW8>
0

>  <vsurf_D1>
941.625

>  <vsurf_D2>
554.625

>  <vsurf_D3>
411.625

>  <vsurf_D4>
354.875

>  <vsurf_D5>
308.25

>  <vsurf_D6>
253.875

>  <vsurf_D7>
152.25

>  <vsurf_D8>
82.375

>  <vsurf_DD12>
1.65831

>  <vsurf_DD13>
0.5

>  <vsurf_DD23>
1.22474

>  <vsurf_DW12>
5.5

>  <vsurf_DW13>
0.707107

>  <vsurf_DW23>
4.92443

>  <vsurf_EDmin1>
-2.6732

>  <vsurf_EDmin2>
-2.66239

>  <vsurf_EDmin3>
-2.6431

>  <vsurf_EWmin1>
-5.32359

>  <vsurf_EWmin2>
-5.30873

>  <vsurf_EWmin3>
-5.28829

>  <vsurf_G>
1.3389

>  <vsurf_HB1>
288.375

>  <vsurf_HB2>
324.5

>  <vsurf_HB3>
279.875

>  <vsurf_HB4>
104.5

>  <vsurf_HB5>
34.625

>  <vsurf_HB6>
9.5

>  <vsurf_HB7>
1.25

>  <vsurf_HB8>
0

>  <vsurf_HL1>
0.0996052

>  <vsurf_HL2>
0.0317013

>  <vsurf_ID1>
0.741244

>  <vsurf_ID2>
0.829701

>  <vsurf_ID3>
0.890127

>  <vsurf_ID4>
0.956615

>  <vsurf_ID5>
1.06594

>  <vsurf_ID6>
1.07157

>  <vsurf_ID7>
0.94392

>  <vsurf_ID8>
1.0161

>  <vsurf_IW1>
0.294332

>  <vsurf_IW2>
0.409478

>  <vsurf_IW3>
0.876288

>  <vsurf_IW4>
1.40772

>  <vsurf_IW5>
1.62711

>  <vsurf_IW6>
2.28895

>  <vsurf_IW7>
3.23138

>  <vsurf_IW8>
0

>  <vsurf_R>
1.45788

>  <vsurf_S>
576.952

>  <vsurf_V>
841.125

>  <vsurf_W1>
1386.5

>  <vsurf_W2>
788.5

>  <vsurf_W3>
372.625

>  <vsurf_W4>
121.125

>  <vsurf_W5>
41

>  <vsurf_W6>
11.25

>  <vsurf_W7>
1.25

>  <vsurf_W8>
0

>  <vsurf_Wp1>
1098.13

>  <vsurf_Wp2>
464

>  <vsurf_Wp3>
92.75

>  <vsurf_Wp4>
16.625

>  <vsurf_Wp5>
6.375

>  <vsurf_Wp6>
1.75

>  <vsurf_Wp7>
0

>  <vsurf_Wp8>
0

>  <dens>
1.09539

>  <glob>
0.0547035

>  <std_dim1>
4.48425

>  <std_dim2>
1.65976

>  <std_dim3>
1.04881

>  <vol>
361.375

>  <logP(o/w)>
2.673

$$$$
D1.cdx
  MOE2008           3D

 46 49  0  0  0  0  0  0  0  0999 V2000
   -6.6330    6.2590   -0.6790 C   0  0  0  0  0  0  0  0  0  0  0  0
   -7.6330    6.5870   -0.4000 H   0  0  0  0  0  0  0  0  0  0  0  0
   -6.4910    5.4120   -1.7700 C   0  0  0  0  0  0  0  0  0  0  0  0
   -7.3700    5.0980   -2.3280 H   0  0  0  0  0  0  0  0  0  0  0  0
   -5.2350    4.9460   -2.1450 C   0  0  0  0  0  0  0  0  0  0  0  0
   -5.1270    4.2700   -2.9880 H   0  0  0  0  0  0  0  0  0  0  0  0
   -4.1260    5.3710   -1.4010 C   0  0  0  0  0  0  0  0  0  0  0  0
   -4.2120    6.2480   -0.3080 C   0  0  0  0  0  0  0  0  0  0  0  0
   -5.5150    6.6790    0.0640 C   0  0  0  0  0  0  0  0  0  0  0  0
   -2.8070    5.0310   -1.5670 N   0  0  0  0  0  0  0  0  0  0  0  0
   -2.4600    4.4050   -2.2810 H   0  0  0  0  0  0  0  0  0  0  0  0
   -2.0390    5.6580   -0.6330 C   0  0  0  0  0  0  0  0  0  0  0  0
   -0.9670    5.5020   -0.6250 H   0  0  0  0  0  0  0  0  0  0  0  0
   -2.8550    6.4570    0.1520 C   0  0  0  0  0  0  0  0  0  0  0  0
   -2.3250    7.3250    1.2010 C   0  0  0  0  0  0  0  0  0  0  0  0
   -0.9520    7.0380    1.7850 C   0  0  0  0  0  0  0  0  0  0  0  0
    0.1220    7.7540    1.2570 N   0  0  0  0  0  0  0  0  0  0  0  0
    1.4730    7.4770    1.7470 C   0  0  0  0  0  0  0  0  0  0  0  0
    1.6670    8.1900    2.5570 H   0  0  0  0  0  0  0  0  0  0  0  0
    1.5220    6.4700    2.1750 H   0  0  0  0  0  0  0  0  0  0  0  0
    2.5240    7.6320    0.6430 C   0  0  0  0  0  0  0  0  0  0  0  0
    2.3480    6.8810   -0.1360 H   0  0  0  0  0  0  0  0  0  0  0  0
    3.5250    7.4700    1.0550 H   0  0  0  0  0  0  0  0  0  0  0  0
    2.4650    8.9470   -0.0130 N   0  0  0  0  0  0  0  0  0  0  0  0
    1.2140    9.6980    0.1230 C   0  0  0  0  0  0  0  0  0  0  0  0
    1.3090   10.2970    1.0370 H   0  0  0  0  0  0  0  0  0  0  0  0
    1.0970   10.3950   -0.7130 H   0  0  0  0  0  0  0  0  0  0  0  0
   -0.0130    8.7870    0.2210 C   0  0  0  0  0  0  0  0  0  0  0  0
   -0.1600    8.2600   -0.7290 H   0  0  0  0  0  0  0  0  0  0  0  0
   -0.9070    9.3880    0.4100 H   0  0  0  0  0  0  0  0  0  0  0  0
    3.5150    9.5320   -0.7200 C   0  0  0  0  0  0  0  0  0  0  0  0
    4.7500    8.7480   -0.9400 C   0  0  0  0  0  0  0  0  0  0  0  0
    4.7260    7.5770   -1.7050 C   0  0  0  0  0  0  0  0  0  0  0  0
    3.7980    7.2200   -2.1440 H   0  0  0  0  0  0  0  0  0  0  0  0
    5.9100    6.8720   -1.9190 C   0  0  0  0  0  0  0  0  0  0  0  0
    5.9030    5.9600   -2.5110 H   0  0  0  0  0  0  0  0  0  0  0  0
    7.1110    7.3430   -1.3840 C   0  0  0  0  0  0  0  0  0  0  0  0
    8.0330    6.7940   -1.5560 H   0  0  0  0  0  0  0  0  0  0  0  0
    7.1350    8.5240   -0.6390 C   0  0  0  0  0  0  0  0  0  0  0  0
    8.0740    8.8930   -0.2360 H   0  0  0  0  0  0  0  0  0  0  0  0
    5.9540    9.2340   -0.4210 C   0  0  0  0  0  0  0  0  0  0  0  0
    5.9740   10.1600    0.1490 H   0  0  0  0  0  0  0  0  0  0  0  0
   -2.9000    8.3180    1.6350 O   0  0  0  0  0  0  0  0  0  0  0  0
   -0.8770    6.1850    2.6620 O   0  0  0  0  0  0  0  0  0  0  0  0
    3.4910   10.6760   -1.1650 O   0  0  0  0  0  0  0  0  0  0  0  0
   -5.8950    7.7650    1.5740 Br  0  0  0  0  0  0  0  0  0  0  0  0
  1  2  1  0  0  0  0
  1  3  1  0  0  0  0
  1  9  2  0  0  0  0
  3  4  1  0  0  0  0
  3  5  2  0  0  0  0
  5  6  1  0  0  0  0
  5  7  1  0  0  0  0
  7  8  2  0  0  0  0
  7 10  1  0  0  0  0
  8  9  1  0  0  0  0
  8 14  1  0  0  0  0
  9 46  1  0  0  0  0
 10 11  1  0  0  0  0
 10 12  1  0  0  0  0
 12 13  1  0  0  0  0
 12 14  2  0  0  0  0
 14 15  1  0  0  0  0
 15 16  1  0  0  0  0
 15 43  2  0  0  0  0
 16 17  1  0  0  0  0
 16 44  2  0  0  0  0
 17 18  1  0  0  0  0
 17 28  1  0  0  0  0
 18 19  1  0  0  0  0
 18 20  1  0  0  0  0
 18 21  1  0  0  0  0
 21 22  1  0  0  0  0
 21 23  1  0  0  0  0
 21 24  1  0  0  0  0
 24 25  1  0  0  0  0
 24 31  1  0  0  0  0
 25 26  1  0  0  0  0
 25 27  1  0  0  0  0
 25 28  1  0  0  0  0
 28 29  1  0  0  0  0
 28 30  1  0  0  0  0
 31 32  1  0  0  0  0
 31 45  2  0  0  0  0
 32 33  1  0  0  0  0
 32 41  2  0  0  0  0
 33 34  1  0  0  0  0
 33 35  2  0  0  0  0
 35 36  1  0  0  0  0
 35 37  1  0  0  0  0
 37 38  1  0  0  0  0
 37 39  2  0  0  0  0
 39 40  1  0  0  0  0
 39 41  1  0  0  0  0
 41 42  1  0  0  0  0
M  END
>  <Activity>
8.3467

>  <AM1_dipole>
6.51618

>  <AM1_E>
-112290

>  <AM1_Eele>
-827044

>  <AM1_HF>
15.4968

>  <AM1_HOMO>
-8.9322

>  <AM1_IP>
8.9322

>  <AM1_LUMO>
-0.66027

>  <diameter>
15

>  <petitjean>
0.466667

>  <petitjeanSC>
0.875

>  <radius>
8

>  <VDistEq>
3.66276

>  <VDistMa>
9.29304

>  <weinerPath>
2210

>  <weinerPol>
47

>  <BCUT_PEOE_0>
-2.71188

>  <BCUT_PEOE_1>
-0.639529

>  <BCUT_PEOE_2>
0.649481

>  <BCUT_PEOE_3>
2.65024

>  <BCUT_SLOGP_0>
-2.86001

>  <BCUT_SLOGP_1>
-0.53808

>  <BCUT_SLOGP_2>
0.805915

>  <BCUT_SLOGP_3>
2.50366

>  <BCUT_SMR_0>
-2.43203

>  <BCUT_SMR_1>
-0.433061

>  <BCUT_SMR_2>
0.854311

>  <BCUT_SMR_3>
2.92027

>  <GCUT_PEOE_0>
-0.860342

>  <GCUT_PEOE_1>
-0.403742

>  <GCUT_PEOE_2>
0.080099

>  <GCUT_PEOE_3>
2.64934

>  <GCUT_SLOGP_0>
-0.976479

>  <GCUT_SLOGP_1>
-0.312362

>  <GCUT_SLOGP_2>
0.164454

>  <GCUT_SLOGP_3>
2.64211

>  <GCUT_SMR_0>
-0.508905

>  <GCUT_SMR_1>
-0.216057

>  <GCUT_SMR_2>
0.239287

>  <GCUT_SMR_3>
2.92728

>  <a_aro>
15

>  <a_count>
46

>  <a_IC>
77.2768

>  <a_ICM>
1.67993

>  <a_nH>
18

>  <b_1rotN>
5

>  <b_1rotR>
0.16129

>  <b_ar>
16

>  <b_count>
49

>  <b_double>
3

>  <b_rotN>
5

>  <b_rotR>
0.16129

>  <b_single>
30

>  <b_triple>
0

>  <chi0v>
16.6077

>  <chi0v_C>
12.0246

>  <chi1v>
9.78853

>  <chi1v_C>
5.94338

>  <chiral>
0

>  <chiral_u>
0

>  <nmol>
1

>  <reactive>
0

>  <rings>
4

>  <Weight>
440.297

>  <a_heavy>
28

>  <a_nB>
0

>  <a_nBr>
1

>  <a_nC>
21

>  <a_nCl>
0

>  <a_nF>
0

>  <a_nI>
0

>  <a_nN>
3

>  <a_nO>
3

>  <a_nP>
0

>  <a_nS>
0

>  <b_heavy>
31

>  <chi0>
19.673

>  <chi0_C>
13.8112

>  <chi1>
13.5586

>  <chi1_C>
8.04124

>  <FCharge>
0

>  <VAdjEq>
0.398935

>  <VAdjMa>
5.9542

>  <zagreb>
150

>  <balabanJ>
1.29268

>  <PEOE_PC+>
2.3155

>  <PEOE_PC->
-2.3155

>  <PEOE_RPC+>
0.127445

>  <PEOE_RPC->
0.155438

>  <PEOE_VSA+0>
82.8841

>  <PEOE_VSA+1>
74.7201

>  <PEOE_VSA+2>
0

>  <PEOE_VSA+3>
8.61901

>  <PEOE_VSA+4>
0

>  <PEOE_VSA+5>
34.3576

>  <PEOE_VSA+6>
0

>  <PEOE_VSA-0>
92.6445

>  <PEOE_VSA-1>
49.0196

>  <PEOE_VSA-2>
0

>  <PEOE_VSA-3>
0

>  <PEOE_VSA-4>
0

>  <PEOE_VSA-5>
40.7008

>  <PEOE_VSA-6>
0.136891

>  <PEOE_VSA_FHYD>
0.80371

>  <PEOE_VSA_FNEG>
0.476403

>  <PEOE_VSA_FPNEG>
0.106603

>  <PEOE_VSA_FPOL>
0.19629

>  <PEOE_VSA_FPOS>
0.523597

>  <PEOE_VSA_FPPOS>
0.0896872

>  <PEOE_VSA_HYD>
307.887

>  <PEOE_VSA_NEG>
182.502

>  <PEOE_VSA_PNEG>
40.8377

>  <PEOE_VSA_POL>
75.1952

>  <PEOE_VSA_POS>
200.581

>  <PEOE_VSA_PPOS>
34.3576

>  <PC+>
4.88

>  <PC->
-4.881

>  <Q_PC+>
4.88

>  <Q_PC->
-4.881

>  <Q_RPC+>
0.134426

>  <Q_RPC->
0.135218

>  <Q_VSA_FHYD>
0.600106

>  <Q_VSA_FNEG>
0.543013

>  <Q_VSA_FPNEG>
0.149959

>  <Q_VSA_FPOL>
0.399894

>  <Q_VSA_FPOS>
0.456987

>  <Q_VSA_FPPOS>
0.249935

>  <Q_VSA_HYD>
229.89

>  <Q_VSA_NEG>
208.019

>  <Q_VSA_PNEG>
57.4467

>  <Q_VSA_POL>
153.193

>  <Q_VSA_POS>
175.064

>  <Q_VSA_PPOS>
95.7459

>  <RPC+>
0.134426

>  <RPC->
0.135218

>  <lip_acc>
6

>  <lip_don>
1

>  <lip_druglike>
1

>  <lip_violation>
0

>  <opr_brigid>
22

>  <opr_leadlike>
1

>  <opr_nring>
4

>  <opr_nrot>
5

>  <opr_violation>
0

>  <E>
100.404

>  <E_ang>
7.8683

>  <E_ele>
33.0371

>  <E_nb>
79.6025

>  <E_oop>
0.0953884

>  <E_sol>
-18.9703

>  <E_stb>
0.509422

>  <E_str>
6.5559

>  <E_strain>
0.00350683

>  <E_tor>
5.77288

>  <E_vdw>
46.5653

>  <E_rele>
0

>  <E_rnb>
-1.13687e-013

>  <E_rsol>
-1.13687e-013

>  <E_rvdw>
0

>  <Kier1>
21.2404

>  <Kier2>
9.42769

>  <Kier3>
4.54179

>  <KierA1>
16.0228

>  <KierA2>
7.03228

>  <KierA3>
3.36075

>  <KierFlex>
4.02418

>  <logS>
-5.11998

>  <MNDO_dipole>
6.66305

>  <MNDO_E>
-112375

>  <MNDO_Eele>
-820810

>  <MNDO_HF>
-7.08201

>  <MNDO_HOMO>
-8.90983

>  <MNDO_IP>
8.90983

>  <MNDO_LUMO>
-0.60482

>  <apol>
57.7183

>  <bpol>
28.4617

>  <mr>
11.0338

>  <dipole>
1.8462

>  <dipoleX>
0.714771

>  <dipoleY>
-1.31016

>  <dipoleZ>
-1.08676

>  <pmi>
10259.4

>  <pmiX>
8559.79

>  <pmiY>
873.841

>  <pmiZ>
825.786

>  <rgyr>
4.82712

>  <a_acc>
3

>  <a_acid>
0

>  <a_base>
0

>  <a_don>
1

>  <a_hyd>
19

>  <vsa_acc>
40.7008

>  <vsa_acid>
0

>  <vsa_base>
0

>  <vsa_don>
5.68258

>  <vsa_hyd>
287.168

>  <vsa_other>
34.3576

>  <vsa_pol>
46.3833

>  <PM3_dipole>
6.16545

>  <PM3_E>
-103434

>  <PM3_Eele>
-812629

>  <PM3_HF>
-19.5206

>  <PM3_HOMO>
-8.86392

>  <PM3_IP>
8.86392

>  <PM3_LUMO>
-0.63942

>  <SlogP>
3.0977

>  <SlogP_VSA0>
0

>  <SlogP_VSA1>
22.4538

>  <SlogP_VSA2>
40.6477

>  <SlogP_VSA3>
73.7583

>  <SlogP_VSA4>
54.0956

>  <SlogP_VSA5>
3.0551

>  <SlogP_VSA6>
0

>  <SlogP_VSA7>
163.077

>  <SlogP_VSA8>
0

>  <SlogP_VSA9>
45.9541

>  <SMR>
10.9255

>  <SMR_VSA0>
71.5866

>  <SMR_VSA1>
6.24863

>  <SMR_VSA2>
19.8406

>  <SMR_VSA3>
6.37115

>  <SMR_VSA4>
4.7171

>  <SMR_VSA5>
158.36

>  <SMR_VSA6>
89.9635

>  <SMR_VSA7>
45.9541

>  <ASA>
648

>  <ASA+>
237.971

>  <ASA->
304.225

>  <ASA_H>
499.798

>  <ASA_P>
148.202

>  <CASA+>
1161.3

>  <CASA->
1484.92

>  <DASA>
66.2541

>  <DCASA>
323.624

>  <FASA+>
0.36724

>  <FASA->
0.469484

>  <FASA_H>
0.771294

>  <FASA_P>
0.228706

>  <FCASA+>
1.79213

>  <FCASA->
2.29155

>  <VSA>
398.738

>  <TPSA>
73.48

>  <density>
0.855561

>  <vdw_area>
383.082

>  <vdw_vol>
514.63

>  <vsurf_A>
2.49609

>  <vsurf_CP>
0.1507

>  <vsurf_CW1>
2.64747

>  <vsurf_CW2>
2.11398

>  <vsurf_CW3>
1.22288

>  <vsurf_CW4>
0.516896

>  <vsurf_CW5>
0.223795

>  <vsurf_CW6>
0.072142

>  <vsurf_CW7>
0.00898056

>  <vsurf_CW8>
0

>  <vsurf_D1>
977.375

>  <vsurf_D2>
573.625

>  <vsurf_D3>
426.875

>  <vsurf_D4>
363

>  <vsurf_D5>
316.25

>  <vsurf_D6>
261

>  <vsurf_D7>
153.5

>  <vsurf_D8>
88.125

>  <vsurf_DD12>
0.707107

>  <vsurf_DD13>
0.5

>  <vsurf_DD23>
0.5

>  <vsurf_DW12>
0.5

>  <vsurf_DW13>
0.707107

>  <vsurf_DW23>
0.5

>  <vsurf_EDmin1>
-2.76287

>  <vsurf_EDmin2>
-2.71753

>  <vsurf_EDmin3>
-2.7069

>  <vsurf_EWmin1>
-5.57058

>  <vsurf_EWmin2>
-5.53836

>  <vsurf_EWmin3>
-5.42976

>  <vsurf_G>
1.34532

>  <vsurf_HB1>
291.875

>  <vsurf_HB2>
319.75

>  <vsurf_HB3>
280.75

>  <vsurf_HB4>
103.5

>  <vsurf_HB5>
36.125

>  <vsurf_HB6>
9.625

>  <vsurf_HB7>
1.625

>  <vsurf_HB8>
0

>  <vsurf_HL1>
0.0995608

>  <vsurf_HL2>
0.0299587

>  <vsurf_ID1>
0.935617

>  <vsurf_ID2>
0.978251

>  <vsurf_ID3>
1.14924

>  <vsurf_ID4>
1.23346

>  <vsurf_ID5>
1.31047

>  <vsurf_ID6>
1.33497

>  <vsurf_ID7>
1.04873

>  <vsurf_ID8>
1.13043

>  <vsurf_IW1>
0.751467

>  <vsurf_IW2>
0.666319

>  <vsurf_IW3>
1.01286

>  <vsurf_IW4>
1.35932

>  <vsurf_IW5>
1.75647

>  <vsurf_IW6>
2.18231

>  <vsurf_IW7>
3.65175

>  <vsurf_IW8>
0

>  <vsurf_R>
1.458

>  <vsurf_S>
585.39

>  <vsurf_V>
853.5

>  <vsurf_W1>
1412.88

>  <vsurf_W2>
797.25

>  <vsurf_W3>
372.875

>  <vsurf_W4>
119.875

>  <vsurf_W5>
42.5

>  <vsurf_W6>
10.875

>  <vsurf_W7>
1.625

>  <vsurf_W8>
0

>  <vsurf_Wp1>
1121

>  <vsurf_Wp2>
477.5

>  <vsurf_Wp3>
92.125

>  <vsurf_Wp4>
16.375

>  <vsurf_Wp5>
6.375

>  <vsurf_Wp6>
1.25

>  <vsurf_Wp7>
0

>  <vsurf_Wp8>
0

>  <dens>
1.1832

>  <glob>
0.0545797

>  <std_dim1>
4.48919

>  <std_dim2>
1.66382

>  <std_dim3>
1.04878

>  <vol>
372.125

>  <logP(o/w)>
2.879

$$$$
D1.cdx
  MOE2008           3D

 48 51  0  0  0  0  0  0  0  0999 V2000
   -6.0260    3.9040   -0.8730 C   0  0  0  0  0  0  0  0  0  0  0  0
   -6.7080    4.7380   -0.7250 H   0  0  0  0  0  0  0  0  0  0  0  0
   -6.2990    2.9560   -1.8500 C   0  0  0  0  0  0  0  0  0  0  0  0
   -7.2010    3.0450   -2.4510 H   0  0  0  0  0  0  0  0  0  0  0  0
   -5.4170    1.8970   -2.0880 C   0  0  0  0  0  0  0  0  0  0  0  0
   -5.6310    1.1700   -2.8660 H   0  0  0  0  0  0  0  0  0  0  0  0
   -4.2580    1.8010   -1.3000 C   0  0  0  0  0  0  0  0  0  0  0  0
   -3.9470    2.7070   -0.2750 C   0  0  0  0  0  0  0  0  0  0  0  0
   -4.8570    3.7790   -0.1080 C   0  0  0  0  0  0  0  0  0  0  0  0
   -3.2470    0.8720   -1.3530 N   0  0  0  0  0  0  0  0  0  0  0  0
   -3.2070    0.1030   -2.0090 H   0  0  0  0  0  0  0  0  0  0  0  0
   -2.3150    1.1360   -0.3910 C   0  0  0  0  0  0  0  0  0  0  0  0
   -1.4560    0.4860   -0.2750 H   0  0  0  0  0  0  0  0  0  0  0  0
   -2.7300    2.2370    0.3380 C   0  0  0  0  0  0  0  0  0  0  0  0
   -2.0390    2.7370    1.5220 C   0  0  0  0  0  0  0  0  0  0  0  0
   -0.5870    2.3710    1.7720 C   0  0  0  0  0  0  0  0  0  0  0  0
    0.3750    3.3320    1.4660 N   0  0  0  0  0  0  0  0  0  0  0  0
    1.7860    2.9990    1.6650 C   0  0  0  0  0  0  0  0  0  0  0  0
    2.0090    3.2020    2.7190 H   0  0  0  0  0  0  0  0  0  0  0  0
    1.9420    1.9270    1.4970 H   0  0  0  0  0  0  0  0  0  0  0  0
    2.7200    3.8150    0.7660 C   0  0  0  0  0  0  0  0  0  0  0  0
    2.5300    3.5710   -0.2860 H   0  0  0  0  0  0  0  0  0  0  0  0
    3.7590    3.5610    0.9930 H   0  0  0  0  0  0  0  0  0  0  0  0
    2.5080    5.2620    0.9110 N   0  0  0  0  0  0  0  0  0  0  0  0
    1.1650    5.6960    1.3070 C   0  0  0  0  0  0  0  0  0  0  0  0
    1.1960    5.8500    2.3920 H   0  0  0  0  0  0  0  0  0  0  0  0
    0.9380    6.6640    0.8460 H   0  0  0  0  0  0  0  0  0  0  0  0
    0.0730    4.6780    0.9590 C   0  0  0  0  0  0  0  0  0  0  0  0
   -0.0230    4.5850   -0.1290 H   0  0  0  0  0  0  0  0  0  0  0  0
   -0.8860    5.0240    1.3500 H   0  0  0  0  0  0  0  0  0  0  0  0
    3.4870    6.2390    0.7340 C   0  0  0  0  0  0  0  0  0  0  0  0
    4.8240    5.8310    0.2450 C   0  0  0  0  0  0  0  0  0  0  0  0
    5.9370    6.0830    1.0540 C   0  0  0  0  0  0  0  0  0  0  0  0
    5.8150    6.5540    2.0260 H   0  0  0  0  0  0  0  0  0  0  0  0
    7.2090    5.7280    0.6050 C   0  0  0  0  0  0  0  0  0  0  0  0
    8.0790    5.9170    1.2300 H   0  0  0  0  0  0  0  0  0  0  0  0
    7.3660    5.1370   -0.6490 C   0  0  0  0  0  0  0  0  0  0  0  0
    8.3590    4.8630   -0.9980 H   0  0  0  0  0  0  0  0  0  0  0  0
    6.2550    4.9070   -1.4640 C   0  0  0  0  0  0  0  0  0  0  0  0
    6.3870    4.4600   -2.4460 H   0  0  0  0  0  0  0  0  0  0  0  0
    4.9800    5.2600   -1.0220 C   0  0  0  0  0  0  0  0  0  0  0  0
    4.1230    5.1000   -1.6700 H   0  0  0  0  0  0  0  0  0  0  0  0
   -2.5910    3.4260    2.3740 O   0  0  0  0  0  0  0  0  0  0  0  0
   -0.3540    1.2510    2.2150 O   0  0  0  0  0  0  0  0  0  0  0  0
    3.3220    7.4310    0.9780 O   0  0  0  0  0  0  0  0  0  0  0  0
   -4.5420    4.8450    0.8120 N   0  3  0  0  0  0  0  0  0  0  0  0
   -3.5300    5.5170    0.5640 O   0  0  0  0  0  0  0  0  0  0  0  0
   -5.3470    5.0530    1.7300 O   0  5  0  0  0  0  0  0  0  0  0  0
  1  2  1  0  0  0  0
  1  3  2  0  0  0  0
  1  9  1  0  0  0  0
  3  4  1  0  0  0  0
  3  5  1  0  0  0  0
  5  6  1  0  0  0  0
  5  7  2  0  0  0  0
  7  8  1  0  0  0  0
  7 10  1  0  0  0  0
  8  9  2  0  0  0  0
  8 14  1  0  0  0  0
  9 46  1  0  0  0  0
 10 11  1  0  0  0  0
 10 12  1  0  0  0  0
 12 13  1  0  0  0  0
 12 14  2  0  0  0  0
 14 15  1  0  0  0  0
 15 16  1  0  0  0  0
 15 43  2  0  0  0  0
 16 17  1  0  0  0  0
 16 44  2  0  0  0  0
 17 18  1  0  0  0  0
 17 28  1  0  0  0  0
 18 19  1  0  0  0  0
 18 20  1  0  0  0  0
 18 21  1  0  0  0  0
 21 22  1  0  0  0  0
 21 23  1  0  0  0  0
 21 24  1  0  0  0  0
 24 25  1  0  0  0  0
 24 31  1  0  0  0  0
 25 26  1  0  0  0  0
 25 27  1  0  0  0  0
 25 28  1  0  0  0  0
 28 29  1  0  0  0  0
 28 30  1  0  0  0  0
 31 32  1  0  0  0  0
 31 45  2  0  0  0  0
 32 33  1  0  0  0  0
 32 41  2  0  0  0  0
 33 34  1  0  0  0  0
 33 35  2  0  0  0  0
 35 36  1  0  0  0  0
 35 37  1  0  0  0  0
 37 38  1  0  0  0  0
 37 39  2  0  0  0  0
 39 40  1  0  0  0  0
 39 41  1  0  0  0  0
 41 42  1  0  0  0  0
 46 47  2  0  0  0  0
 46 48  1  0  0  0  0
M  CHG  1  46   1
M  CHG  1  48  -1
M  END
>  <Activity>
6.8244

>  <AM1_dipole>
10.0505

>  <AM1_E>
-123621

>  <AM1_Eele>
-943629

>  <AM1_HF>
10.9491

>  <AM1_HOMO>
-9.47665

>  <AM1_IP>
9.47665

>  <AM1_LUMO>
-1.22099

>  <diameter>
15

>  <petitjean>
0.466667

>  <petitjeanSC>
0.875

>  <radius>
8

>  <VDistEq>
3.7128

>  <VDistMa>
9.49867

>  <weinerPath>
2642

>  <weinerPol>
51

>  <BCUT_PEOE_0>
-2.71187

>  <BCUT_PEOE_1>
-0.635555

>  <BCUT_PEOE_2>
0.652703

>  <BCUT_PEOE_3>
2.6504

>  <BCUT_SLOGP_0>
-2.86001

>  <BCUT_SLOGP_1>
-0.542752

>  <BCUT_SLOGP_2>
0.741826

>  <BCUT_SLOGP_3>
2.50385

>  <BCUT_SMR_0>
-2.43203

>  <BCUT_SMR_1>
-0.451838

>  <BCUT_SMR_2>
0.800055

>  <BCUT_SMR_3>
2.92028

>  <GCUT_PEOE_0>
-0.859138

>  <GCUT_PEOE_1>
-0.411797

>  <GCUT_PEOE_2>
0.0811593

>  <GCUT_PEOE_3>
2.67988

>  <GCUT_SLOGP_0>
-0.976497

>  <GCUT_SLOGP_1>
-0.305006

>  <GCUT_SLOGP_2>
0.1495

>  <GCUT_SLOGP_3>
2.66427

>  <GCUT_SMR_0>
-0.50897

>  <GCUT_SMR_1>
-0.215832

>  <GCUT_SMR_2>
0.20875

>  <GCUT_SMR_3>
2.94397

>  <a_aro>
15

>  <a_count>
48

>  <a_IC>
81.1712

>  <a_ICM>
1.69107

>  <a_nH>
18

>  <b_1rotN>
6

>  <b_1rotR>
0.181818

>  <b_ar>
16

>  <b_count>
51

>  <b_double>
4

>  <b_rotN>
6

>  <b_rotR>
0.181818

>  <b_single>
31

>  <b_triple>
0

>  <chi0v>
15.9075

>  <chi0v_C>
12.0246

>  <chi1v>
9.3953

>  <chi1v_C>
5.94338

>  <chiral>
0

>  <chiral_u>
0

>  <nmol>
1

>  <reactive>
0

>  <rings>
4

>  <Weight>
406.398

>  <a_heavy>
30

>  <a_nB>
0

>  <a_nBr>
0

>  <a_nC>
21

>  <a_nCl>
0

>  <a_nF>
0

>  <a_nI>
0

>  <a_nN>
4

>  <a_nO>
5

>  <a_nP>
0

>  <a_nS>
0

>  <b_heavy>
33

>  <chi0>
21.2503

>  <chi0_C>
13.8112

>  <chi1>
14.4692

>  <chi1_C>
8.04124

>  <FCharge>
0

>  <VAdjEq>
0.378242

>  <VAdjMa>
6.04439

>  <zagreb>
160

>  <balabanJ>
1.31858

>  <PEOE_PC+>
2.72962

>  <PEOE_PC->
-2.72962

>  <PEOE_RPC+>
0.108111

>  <PEOE_RPC->
0.131802

>  <PEOE_VSA+0>
83.9787

>  <PEOE_VSA+1>
87.6562

>  <PEOE_VSA+2>
0

>  <PEOE_VSA+3>
8.61901

>  <PEOE_VSA+4>
0

>  <PEOE_VSA+5>
41.0571

>  <PEOE_VSA+6>
0

>  <PEOE_VSA-0>
36.7647

>  <PEOE_VSA-1>
49.0196

>  <PEOE_VSA-2>
0

>  <PEOE_VSA-3>
0

>  <PEOE_VSA-4>
0

>  <PEOE_VSA-5>
74.6318

>  <PEOE_VSA-6>
0.136891

>  <PEOE_VSA_FHYD>
0.696683

>  <PEOE_VSA_FNEG>
0.420446

>  <PEOE_VSA_FPNEG>
0.195799

>  <PEOE_VSA_FPOL>
0.303317

>  <PEOE_VSA_FPOS>
0.579554

>  <PEOE_VSA_FPPOS>
0.107518

>  <PEOE_VSA_HYD>
266.038

>  <PEOE_VSA_NEG>
160.553

>  <PEOE_VSA_PNEG>
74.7687

>  <PEOE_VSA_POL>
115.826

>  <PEOE_VSA_POS>
221.311

>  <PEOE_VSA_PPOS>
41.0571

>  <PC+>
5.809

>  <PC->
-5.81

>  <Q_PC+>
5.809

>  <Q_PC->
-5.81

>  <Q_RPC+>
0.156137

>  <Q_RPC->
0.113597

>  <Q_VSA_FHYD>
0.499425

>  <Q_VSA_FNEG>
0.51936

>  <Q_VSA_FPNEG>
0.239294

>  <Q_VSA_FPOL>
0.500575

>  <Q_VSA_FPOS>
0.48064

>  <Q_VSA_FPPOS>
0.261281

>  <Q_VSA_HYD>
190.712

>  <Q_VSA_NEG>
198.325

>  <Q_VSA_PNEG>
91.3777

>  <Q_VSA_POL>
191.152

>  <Q_VSA_POS>
183.539

>  <Q_VSA_PPOS>
99.7739

>  <RPC+>
0.156137

>  <RPC->
0.113597

>  <lip_acc>
9

>  <lip_don>
1

>  <lip_druglike>
1

>  <lip_violation>
0

>  <opr_brigid>
22

>  <opr_leadlike>
1

>  <opr_nring>
4

>  <opr_nrot>
6

>  <opr_violation>
1

>  <E>
114.07

>  <E_ang>
10.9674

>  <E_ele>
35.7857

>  <E_nb>
84.0046

>  <E_oop>
0.275792

>  <E_sol>
-22.4101

>  <E_stb>
0.815366

>  <E_str>
6.39171

>  <E_strain>
0.00414503

>  <E_tor>
11.6151

>  <E_vdw>
48.219

>  <E_rele>
0

>  <E_rnb>
-2.84217e-014

>  <E_rsol>
-2.84217e-014

>  <E_rvdw>
0

>  <Kier1>
23.168

>  <Kier2>
10.2924

>  <Kier3>
5.01018

>  <KierA1>
15.695

>  <KierA2>
6.87065

>  <KierA3>
3.30973

>  <KierFlex>
3.5945

>  <logS>
-4.81982

>  <MNDO_dipole>
10.7896

>  <MNDO_E>
-123907

>  <MNDO_Eele>
-932141

>  <MNDO_HF>
3.31994

>  <MNDO_HOMO>
-9.54384

>  <MNDO_IP>
9.54384

>  <MNDO_LUMO>
-1.19404

>  <apol>
57.3723

>  <bpol>
28.4277

>  <mr>
10.7946

>  <dipole>
2.41328

>  <dipoleX>
0.332541

>  <dipoleY>
-1.51138

>  <dipoleZ>
-1.85178

>  <pmi>
8910.96

>  <pmiX>
7046.4

>  <pmiY>
1229.08

>  <pmiZ>
635.481

>  <rgyr>
4.68259

>  <a_acc>
3

>  <a_acid>
0

>  <a_base>
0

>  <a_don>
1

>  <a_hyd>
19

>  <vsa_acc>
40.7008

>  <vsa_acid>
0

>  <vsa_base>
0

>  <vsa_don>
5.68258

>  <vsa_hyd>
252.018

>  <vsa_other>
68.2886

>  <vsa_pol>
46.3833

>  <PM3_dipole>
10.4752

>  <PM3_E>
-112505

>  <PM3_Eele>
-922252

>  <PM3_HF>
-35.8995

>  <PM3_HOMO>
-9.43572

>  <PM3_IP>
9.43572

>  <PM3_LUMO>
-1.27116

>  <SlogP>
2.2434

>  <SlogP_VSA0>
0

>  <SlogP_VSA1>
29.5394

>  <SlogP_VSA2>
40.6477

>  <SlogP_VSA3>
124.693

>  <SlogP_VSA4>
54.0956

>  <SlogP_VSA5>
0

>  <SlogP_VSA6>
0

>  <SlogP_VSA7>
163.077

>  <SlogP_VSA8>
0

>  <SlogP_VSA9>
2.75675

>  <SMR>
10.8209

>  <SMR_VSA0>
78.6723

>  <SMR_VSA1>
6.24863

>  <SMR_VSA2>
67.7205

>  <SMR_VSA3>
6.37115

>  <SMR_VSA4>
7.47385

>  <SMR_VSA5>
158.36

>  <SMR_VSA6>
89.9635

>  <SMR_VSA7>
0

>  <ASA>
635.729

>  <ASA+>
243.209

>  <ASA->
290.257

>  <ASA_H>
425.415

>  <ASA_P>
210.314

>  <CASA+>
1412.8

>  <CASA->
1686.39

>  <DASA>
47.0477

>  <DCASA>
273.59

>  <FASA+>
0.382568

>  <FASA->
0.456573

>  <FASA_H>
0.669176

>  <FASA_P>
0.330824

>  <FCASA+>
2.22233

>  <FCASA->
2.65269

>  <VSA>
400.378

>  <TPSA>
119.3

>  <density>
0.797572

>  <vdw_area>
381.864

>  <vdw_vol>
509.544

>  <vsurf_A>
3.59789

>  <vsurf_CP>
0.0983686

>  <vsurf_CW1>
2.66583

>  <vsurf_CW2>
2.18565

>  <vsurf_CW3>
1.43062

>  <vsurf_CW4>
0.702628

>  <vsurf_CW5>
0.303878

>  <vsurf_CW6>
0.0870905

>  <vsurf_CW7>
0.00624872

>  <vsurf_CW8>
0

>  <vsurf_D1>
900.875

>  <vsurf_D2>
518.375

>  <vsurf_D3>
381.625

>  <vsurf_D4>
320

>  <vsurf_D5>
276.375

>  <vsurf_D6>
223.75

>  <vsurf_D7>
133.125

>  <vsurf_D8>
70.125

>  <vsurf_DD12>
0.5

>  <vsurf_DD13>
0.866025

>  <vsurf_DD23>
1.22474

>  <vsurf_DW12>
0.707107

>  <vsurf_DW13>
5.61249

>  <vsurf_DW23>
5.24404

>  <vsurf_EDmin1>
-2.83361

>  <vsurf_EDmin2>
-2.77538

>  <vsurf_EDmin3>
-2.76012

>  <vsurf_EWmin1>
-5.57096

>  <vsurf_EWmin2>
-5.41422

>  <vsurf_EWmin3>
-5.39959

>  <vsurf_G>
1.34754

>  <vsurf_HB1>
325.75

>  <vsurf_HB2>
405.625

>  <vsurf_HB3>
368.375

>  <vsurf_HB4>
149.625

>  <vsurf_HB5>
49

>  <vsurf_HB6>
12.125

>  <vsurf_HB7>
1.125

>  <vsurf_HB8>
0

>  <vsurf_HL1>
0.146741

>  <vsurf_HL2>
0.0433594

>  <vsurf_ID1>
1.22352

>  <vsurf_ID2>
1.27451

>  <vsurf_ID3>
1.48005

>  <vsurf_ID4>
1.71862

>  <vsurf_ID5>
1.93921

>  <vsurf_ID6>
2.02695

>  <vsurf_ID7>
1.46866

>  <vsurf_ID8>
1.24296

>  <vsurf_IW1>
0.0380758

>  <vsurf_IW2>
0.842112

>  <vsurf_IW3>
1.51888

>  <vsurf_IW4>
2.04915

>  <vsurf_IW5>
2.16479

>  <vsurf_IW6>
2.50806

>  <vsurf_IW7>
3.92053

>  <vsurf_IW8>
0

>  <vsurf_R>
1.45815

>  <vsurf_S>
588.417

>  <vsurf_V>
858

>  <vsurf_W1>
1455.75

>  <vsurf_W2>
889

>  <vsurf_W3>
463.625

>  <vsurf_W4>
166

>  <vsurf_W5>
56

>  <vsurf_W6>
13.875

>  <vsurf_W7>
1.125

>  <vsurf_W8>
0

>  <vsurf_Wp1>
1130

>  <vsurf_Wp2>
483.375

>  <vsurf_Wp3>
95.25

>  <vsurf_Wp4>
16.375

>  <vsurf_Wp5>
7

>  <vsurf_Wp6>
1.75

>  <vsurf_Wp7>
0

>  <vsurf_Wp8>
0

>  <dens>
1.11342

>  <glob>
0.0796396

>  <std_dim1>
4.51709

>  <std_dim2>
1.57881

>  <std_dim3>
1.27474

>  <vol>
365

>  <logP(o/w)>
2.016

$$$$
D1.cdx
  MOE2008           3D

 52 55  0  0  0  0  0  0  0  0999 V2000
   -5.6290    0.1560   -1.7940 C   0  0  0  0  0  0  0  0  0  0  0  0
   -6.0960    1.1090   -2.0250 H   0  0  0  0  0  0  0  0  0  0  0  0
   -6.1570   -1.0190   -2.3170 C   0  0  0  0  0  0  0  0  0  0  0  0
   -7.0460   -0.9790   -2.9410 H   0  0  0  0  0  0  0  0  0  0  0  0
   -5.5460   -2.2530   -2.0700 C   0  0  0  0  0  0  0  0  0  0  0  0
   -5.9540   -3.1650   -2.4950 H   0  0  0  0  0  0  0  0  0  0  0  0
   -4.3870   -2.2690   -1.2800 C   0  0  0  0  0  0  0  0  0  0  0  0
   -3.8370   -1.1160   -0.7090 C   0  0  0  0  0  0  0  0  0  0  0  0
   -4.4890    0.1090   -0.9800 C   0  0  0  0  0  0  0  0  0  0  0  0
   -3.5830   -3.3250   -0.9260 N   0  0  0  0  0  0  0  0  0  0  0  0
   -3.7380   -4.2850   -1.2040 H   0  0  0  0  0  0  0  0  0  0  0  0
   -2.5450   -2.8880   -0.1510 C   0  0  0  0  0  0  0  0  0  0  0  0
   -1.8160   -3.5940    0.2270 H   0  0  0  0  0  0  0  0  0  0  0  0
   -2.6790   -1.5240    0.0370 C   0  0  0  0  0  0  0  0  0  0  0  0
   -1.7900   -0.7110    0.8570 C   0  0  0  0  0  0  0  0  0  0  0  0
   -0.3880   -1.1990    1.1680 C   0  0  0  0  0  0  0  0  0  0  0  0
    0.6510   -0.6150    0.4520 N   0  0  0  0  0  0  0  0  0  0  0  0
    2.0340   -1.0100    0.7190 C   0  0  0  0  0  0  0  0  0  0  0  0
    2.0870   -1.7340    1.5380 H   0  0  0  0  0  0  0  0  0  0  0  0
    2.4040   -1.5040   -0.1880 H   0  0  0  0  0  0  0  0  0  0  0  0
    2.9070    0.2120    1.0420 C   0  0  0  0  0  0  0  0  0  0  0  0
    3.9480   -0.1100    1.1100 H   0  0  0  0  0  0  0  0  0  0  0  0
    2.6160    0.6370    2.0100 H   0  0  0  0  0  0  0  0  0  0  0  0
    2.7340    1.2800    0.0410 N   0  0  0  0  0  0  0  0  0  0  0  0
    1.3410    1.6470   -0.2440 C   0  0  0  0  0  0  0  0  0  0  0  0
    0.9520    2.1280    0.6620 H   0  0  0  0  0  0  0  0  0  0  0  0
    1.2810    2.3780   -1.0570 H   0  0  0  0  0  0  0  0  0  0  0  0
    0.4970    0.4150   -0.5850 C   0  0  0  0  0  0  0  0  0  0  0  0
    0.8420   -0.0290   -1.5260 H   0  0  0  0  0  0  0  0  0  0  0  0
   -0.5460    0.7050   -0.7230 H   0  0  0  0  0  0  0  0  0  0  0  0
    3.7570    1.9440   -0.6310 C   0  0  0  0  0  0  0  0  0  0  0  0
    5.1550    1.7340   -0.1910 C   0  0  0  0  0  0  0  0  0  0  0  0
    6.0890    1.2560   -1.1140 C   0  0  0  0  0  0  0  0  0  0  0  0
    5.7860    1.0200   -2.1310 H   0  0  0  0  0  0  0  0  0  0  0  0
    7.4170    1.0850   -0.7220 C   0  0  0  0  0  0  0  0  0  0  0  0
    8.1500    0.7100   -1.4320 H   0  0  0  0  0  0  0  0  0  0  0  0
    7.8070    1.4050    0.5800 C   0  0  0  0  0  0  0  0  0  0  0  0
    8.8430    1.2730    0.8820 H   0  0  0  0  0  0  0  0  0  0  0  0
    6.8750    1.9040    1.4920 C   0  0  0  0  0  0  0  0  0  0  0  0
    7.1880    2.1640    2.5000 H   0  0  0  0  0  0  0  0  0  0  0  0
    5.5460    2.0790    1.1070 C   0  0  0  0  0  0  0  0  0  0  0  0
    4.8260    2.4870    1.8120 H   0  0  0  0  0  0  0  0  0  0  0  0
   -2.1070    0.3780    1.3260 O   0  0  0  0  0  0  0  0  0  0  0  0
   -0.2660   -2.0650    2.0280 O   0  0  0  0  0  0  0  0  0  0  0  0
    3.5800    2.7100   -1.5740 O   0  0  0  0  0  0  0  0  0  0  0  0
   -3.9540    1.3540   -0.5590 O   0  0  0  0  0  0  0  0  0  0  0  0
   -4.4550    2.0320    0.5490 C   0  0  0  0  0  0  0  0  0  0  0  0
   -5.3970    1.2610    1.4310 C   0  0  0  0  0  0  0  0  0  0  0  0
   -4.9440    0.3240    1.7590 H   0  0  0  0  0  0  0  0  0  0  0  0
   -6.3470    1.0870    0.9210 H   0  0  0  0  0  0  0  0  0  0  0  0
   -5.6010    1.8550    2.3280 H   0  0  0  0  0  0  0  0  0  0  0  0
   -4.1420    3.1970    0.7770 O   0  0  0  0  0  0  0  0  0  0  0  0
  1  2  1  0  0  0  0
  1  3  1  0  0  0  0
  1  9  2  0  0  0  0
  3  4  1  0  0  0  0
  3  5  2  0  0  0  0
  5  6  1  0  0  0  0
  5  7  1  0  0  0  0
  7  8  2  0  0  0  0
  7 10  1  0  0  0  0
  8  9  1  0  0  0  0
  8 14  1  0  0  0  0
  9 46  1  0  0  0  0
 10 11  1  0  0  0  0
 10 12  1  0  0  0  0
 12 13  1  0  0  0  0
 12 14  2  0  0  0  0
 14 15  1  0  0  0  0
 15 16  1  0  0  0  0
 15 43  2  0  0  0  0
 16 17  1  0  0  0  0
 16 44  2  0  0  0  0
 17 18  1  0  0  0  0
 17 28  1  0  0  0  0
 18 19  1  0  0  0  0
 18 20  1  0  0  0  0
 18 21  1  0  0  0  0
 21 22  1  0  0  0  0
 21 23  1  0  0  0  0
 21 24  1  0  0  0  0
 24 25  1  0  0  0  0
 24 31  1  0  0  0  0
 25 26  1  0  0  0  0
 25 27  1  0  0  0  0
 25 28  1  0  0  0  0
 28 29  1  0  0  0  0
 28 30  1  0  0  0  0
 31 32  1  0  0  0  0
 31 45  2  0  0  0  0
 32 33  1  0  0  0  0
 32 41  2  0  0  0  0
 33 34  1  0  0  0  0
 33 35  2  0  0  0  0
 35 36  1  0  0  0  0
 35 37  1  0  0  0  0
 37 38  1  0  0  0  0
 37 39  2  0  0  0  0
 39 40  1  0  0  0  0
 39 41  1  0  0  0  0
 41 42  1  0  0  0  0
 46 47  1  0  0  0  0
 47 48  1  0  0  0  0
 47 52  2  0  0  0  0
 48 49  1  0  0  0  0
 48 50  1  0  0  0  0
 48 51  1  0  0  0  0
M  END
>  <Activity>
4.6045

>  <AM1_dipole>
7.75252

>  <AM1_E>
-125780

>  <AM1_Eele>
-997702

>  <AM1_HF>
-70.0779

>  <AM1_HOMO>
-8.98081

>  <AM1_IP>
8.98081

>  <AM1_LUMO>
-0.68009

>  <diameter>
16

>  <petitjean>
0.5

>  <petitjeanSC>
1

>  <radius>
8

>  <VDistEq>
3.77

>  <VDistMa>
9.59532

>  <weinerPath>
2915

>  <weinerPol>
51

>  <BCUT_PEOE_0>
-2.71188

>  <BCUT_PEOE_1>
-0.635046

>  <BCUT_PEOE_2>
0.629191

>  <BCUT_PEOE_3>
2.65029

>  <BCUT_SLOGP_0>
-2.86001

>  <BCUT_SLOGP_1>
-0.53808

>  <BCUT_SLOGP_2>
0.70921

>  <BCUT_SLOGP_3>
2.50401

>  <BCUT_SMR_0>
-2.43203

>  <BCUT_SMR_1>
-0.432851

>  <BCUT_SMR_2>
0.779141

>  <BCUT_SMR_3>
2.92028

>  <GCUT_PEOE_0>
-0.860045

>  <GCUT_PEOE_1>
-0.403855

>  <GCUT_PEOE_2>
0.080099

>  <GCUT_PEOE_3>
2.6885

>  <GCUT_SLOGP_0>
-0.976529

>  <GCUT_SLOGP_1>
-0.350198

>  <GCUT_SLOGP_2>
0.141776

>  <GCUT_SLOGP_3>
2.68567

>  <GCUT_SMR_0>
-0.508916

>  <GCUT_SMR_1>
-0.216057

>  <GCUT_SMR_2>
0.193051

>  <GCUT_SMR_3>
2.96103

>  <a_aro>
15

>  <a_count>
52

>  <a_IC>
83.7777

>  <a_ICM>
1.61111

>  <a_nH>
21

>  <b_1rotN>
6

>  <b_1rotR>
0.176471

>  <b_ar>
16

>  <b_count>
55

>  <b_double>
4

>  <b_rotN>
7

>  <b_rotR>
0.205882

>  <b_single>
35

>  <b_triple>
0

>  <chi0v>
16.9602

>  <chi0v_C>
13.5246

>  <chi1v>
9.91892

>  <chi1v_C>
6.44338

>  <chiral>
0

>  <chiral_u>
0

>  <nmol>
1

>  <reactive>
0

>  <rings>
4

>  <Weight>
419.437

>  <a_heavy>
31

>  <a_nB>
0

>  <a_nBr>
0

>  <a_nC>
23

>  <a_nCl>
0

>  <a_nF>
0

>  <a_nI>
0

>  <a_nN>
3

>  <a_nO>
5

>  <a_nP>
0

>  <a_nS>
0

>  <b_heavy>
34

>  <chi0>
21.9575

>  <chi0_C>
15.3885

>  <chi1>
14.9524

>  <chi1_C>
8.61859

>  <FCharge>
0

>  <VAdjEq>
0.368752

>  <VAdjMa>
6.08746

>  <zagreb>
164

>  <balabanJ>
1.31476

>  <PEOE_PC+>
2.78979

>  <PEOE_PC->
-2.78979

>  <PEOE_RPC+>
0.105779

>  <PEOE_RPC->
0.128999

>  <PEOE_VSA+0>
112.176

>  <PEOE_VSA+1>
83.1786

>  <PEOE_VSA+2>
0

>  <PEOE_VSA+3>
8.61901

>  <PEOE_VSA+4>
0

>  <PEOE_VSA+5>
49.0661

>  <PEOE_VSA+6>
0

>  <PEOE_VSA-0>
49.0196

>  <PEOE_VSA-1>
49.0196

>  <PEOE_VSA-2>
0

>  <PEOE_VSA-3>
0

>  <PEOE_VSA-4>
0

>  <PEOE_VSA-5>
56.7714

>  <PEOE_VSA-6>
0.136891

>  <PEOE_VSA_FHYD>
0.74025

>  <PEOE_VSA_FNEG>
0.379786

>  <PEOE_VSA_FPNEG>
0.139486

>  <PEOE_VSA_FPOL>
0.25975

>  <PEOE_VSA_FPOS>
0.620214

>  <PEOE_VSA_FPPOS>
0.120264

>  <PEOE_VSA_HYD>
302.013

>  <PEOE_VSA_NEG>
154.948

>  <PEOE_VSA_PNEG>
56.9083

>  <PEOE_VSA_POL>
105.974

>  <PEOE_VSA_POS>
253.039

>  <PEOE_VSA_PPOS>
49.0661

>  <PC+>
5.571

>  <PC->
-5.572

>  <Q_PC+>
5.571

>  <Q_PC->
-5.572

>  <Q_RPC+>
0.118291

>  <Q_RPC->
0.118449

>  <Q_VSA_FHYD>
0.549074

>  <Q_VSA_FNEG>
0.44233

>  <Q_VSA_FPNEG>
0.180195

>  <Q_VSA_FPOL>
0.450926

>  <Q_VSA_FPOS>
0.55767

>  <Q_VSA_FPPOS>
0.27073

>  <Q_VSA_HYD>
224.015

>  <Q_VSA_NEG>
180.465

>  <Q_VSA_PNEG>
73.5174

>  <Q_VSA_POL>
183.972

>  <Q_VSA_POS>
227.522

>  <Q_VSA_PPOS>
110.454

>  <RPC+>
0.118291

>  <RPC->
0.118449

>  <lip_acc>
8

>  <lip_don>
1

>  <lip_druglike>
1

>  <lip_violation>
0

>  <opr_brigid>
22

>  <opr_leadlike>
1

>  <opr_nring>
4

>  <opr_nrot>
6

>  <opr_violation>
0

>  <E>
110.766

>  <E_ang>
17.4274

>  <E_ele>
28.9842

>  <E_nb>
78.6325

>  <E_oop>
0.0977665

>  <E_sol>
-21.3341

>  <E_stb>
-0.708318

>  <E_str>
7.33644

>  <E_strain>
0.00538286

>  <E_tor>
7.98006

>  <E_vdw>
49.6482

>  <E_rele>
0

>  <E_rnb>
7.81597e-014

>  <E_rsol>
7.81597e-014

>  <E_rvdw>
0

>  <Kier1>
24.1349

>  <Kier2>
10.9505

>  <Kier3>
5.56686

>  <KierA1>
16.6498

>  <KierA2>
7.45297

>  <KierA3>
3.75142

>  <KierFlex>
4.00291

>  <logS>
-4.38311

>  <MNDO_dipole>
6.80847

>  <MNDO_E>
-126097

>  <MNDO_Eele>
-984391

>  <MNDO_HF>
-69.072

>  <MNDO_HOMO>
-8.88627

>  <MNDO_IP>
8.88627

>  <MNDO_LUMO>
-0.65884

>  <apol>
61.7927

>  <bpol>
33.3253

>  <mr>
11.4621

>  <dipole>
1.85047

>  <dipoleX>
-0.0148571

>  <dipoleY>
-1.82593

>  <dipoleZ>
-0.299973

>  <pmi>
9530.81

>  <pmiX>
7693.43

>  <pmiY>
1274.36

>  <pmiZ>
563.009

>  <rgyr>
4.76685

>  <a_acc>
4

>  <a_acid>
0

>  <a_base>
0

>  <a_don>
1

>  <a_hyd>
19

>  <vsa_acc>
54.2677

>  <vsa_acid>
0

>  <vsa_base>
0

>  <vsa_don>
5.68258

>  <vsa_hyd>
279.158

>  <vsa_other>
51.5698

>  <vsa_pol>
59.9503

>  <PM3_dipole>
7.2069

>  <PM3_E>
-115369

>  <PM3_Eele>
-989869

>  <PM3_HF>
-89.5187

>  <PM3_HOMO>
-8.92404

>  <PM3_IP>
8.92404

>  <PM3_LUMO>
-0.6782

>  <SlogP>
2.2605

>  <SlogP_VSA0>
10.9999

>  <SlogP_VSA1>
30.1993

>  <SlogP_VSA2>
64.51

>  <SlogP_VSA3>
73.7583

>  <SlogP_VSA4>
54.0956

>  <SlogP_VSA5>
0

>  <SlogP_VSA6>
0

>  <SlogP_VSA7>
163.077

>  <SlogP_VSA8>
0

>  <SlogP_VSA9>
38.5694

>  <SMR>
11.2864

>  <SMR_VSA0>
95.4489

>  <SMR_VSA1>
17.2485

>  <SMR_VSA2>
16.7855

>  <SMR_VSA3>
11.6146

>  <SMR_VSA4>
4.7171

>  <SMR_VSA5>
158.36

>  <SMR_VSA6>
97.709

>  <SMR_VSA7>
33.326

>  <ASA>
676.209

>  <ASA+>
273.922

>  <ASA->
259.809

>  <ASA_H>
480.805

>  <ASA_P>
195.404

>  <CASA+>
1526.02

>  <CASA->
1447.66

>  <DASA>
14.113

>  <DCASA>
78.3637

>  <FASA+>
0.405086

>  <FASA->
0.384215

>  <FASA_H>
0.711031

>  <FASA_P>
0.288969

>  <FCASA+>
2.25673

>  <FCASA->
2.14085

>  <VSA>
426.282

>  <TPSA>
99.78

>  <density>
0.767721

>  <vdw_area>
407.987

>  <vdw_vol>
546.341

>  <vsurf_A>
2.58113

>  <vsurf_CP>
0.102042

>  <vsurf_CW1>
2.62939

>  <vsurf_CW2>
2.11287

>  <vsurf_CW3>
1.26466

>  <vsurf_CW4>
0.62863

>  <vsurf_CW5>
0.28243

>  <vsurf_CW6>
0.0956933

>  <vsurf_CW7>
0.0152586

>  <vsurf_CW8>
0

>  <vsurf_D1>
909.75

>  <vsurf_D2>
535.125

>  <vsurf_D3>
400.125

>  <vsurf_D4>
346

>  <vsurf_D5>
300.125

>  <vsurf_D6>
246.5

>  <vsurf_D7>
138.875

>  <vsurf_D8>
72.875

>  <vsurf_DD12>
0.5

>  <vsurf_DD13>
0.866025

>  <vsurf_DD23>
1.22474

>  <vsurf_DW12>
0.5

>  <vsurf_DW13>
4.30116

>  <vsurf_DW23>
4.38748

>  <vsurf_EDmin1>
-2.78251

>  <vsurf_EDmin2>
-2.76225

>  <vsurf_EDmin3>
-2.70742

>  <vsurf_EWmin1>
-5.64916

>  <vsurf_EWmin2>
-5.63516

>  <vsurf_EWmin3>
-5.63209

>  <vsurf_G>
1.36698

>  <vsurf_HB1>
379.25

>  <vsurf_HB2>
407.125

>  <vsurf_HB3>
350.625

>  <vsurf_HB4>
140.5

>  <vsurf_HB5>
50.75

>  <vsurf_HB6>
15

>  <vsurf_HB7>
2.875

>  <vsurf_HB8>
0

>  <vsurf_HL1>
0.143705

>  <vsurf_HL2>
0.0473266

>  <vsurf_ID1>
0.795576

>  <vsurf_ID2>
0.794709

>  <vsurf_ID3>
0.873176

>  <vsurf_ID4>
0.951044

>  <vsurf_ID5>
1.0371

>  <vsurf_ID6>
0.955689

>  <vsurf_ID7>
0.741419

>  <vsurf_ID8>
1.06029

>  <vsurf_IW1>
0.13047

>  <vsurf_IW2>
0.478489

>  <vsurf_IW3>
0.844925

>  <vsurf_IW4>
1.44228

>  <vsurf_IW5>
1.78074

>  <vsurf_IW6>
2.10363

>  <vsurf_IW7>
2.71337

>  <vsurf_IW8>
0

>  <vsurf_R>
1.46293

>  <vsurf_S>
618.279

>  <vsurf_V>
904.5

>  <vsurf_W1>
1475

>  <vsurf_W2>
872

>  <vsurf_W3>
432.125

>  <vsurf_W4>
156.875

>  <vsurf_W5>
57.5

>  <vsurf_W6>
16.375

>  <vsurf_W7>
2.875

>  <vsurf_W8>
0

>  <vsurf_Wp1>
1095.75

>  <vsurf_Wp2>
464.875

>  <vsurf_Wp3>
81.5

>  <vsurf_Wp4>
16.375

>  <vsurf_Wp5>
6.75

>  <vsurf_Wp6>
1.375

>  <vsurf_Wp7>
0

>  <vsurf_Wp8>
0

>  <dens>
1.08137

>  <glob>
0.0733959

>  <std_dim1>
4.68602

>  <std_dim2>
1.65592

>  <std_dim3>
1.26952

>  <vol>
387.875

>  <logP(o/w)>
2.014

$$$$
D1.cdx
  MOE2008           3D

 47 50  0  0  0  0  0  0  0  0999 V2000
   -6.3000   -4.0300    0.3640 C   0  0  0  0  0  0  0  0  0  0  0  0
   -7.0290   -3.2510    0.1540 H   0  0  0  0  0  0  0  0  0  0  0  0
   -6.6560   -5.1280    1.1420 C   0  0  0  0  0  0  0  0  0  0  0  0
   -7.6660   -5.2000    1.5370 H   0  0  0  0  0  0  0  0  0  0  0  0
   -5.7350   -6.1440    1.4230 C   0  0  0  0  0  0  0  0  0  0  0  0
   -6.0220   -6.9990    2.0280 H   0  0  0  0  0  0  0  0  0  0  0  0
   -4.4430   -6.0180    0.8960 C   0  0  0  0  0  0  0  0  0  0  0  0
   -4.0510   -4.9310    0.1120 C   0  0  0  0  0  0  0  0  0  0  0  0
   -5.0080   -3.9230   -0.1520 C   0  0  0  0  0  0  0  0  0  0  0  0
   -3.3570   -6.8540    1.0070 N   0  0  0  0  0  0  0  0  0  0  0  0
   -3.3540   -7.7260    1.5200 H   0  0  0  0  0  0  0  0  0  0  0  0
   -2.2870   -6.3360    0.3250 C   0  0  0  0  0  0  0  0  0  0  0  0
   -1.3450   -6.8710    0.3050 H   0  0  0  0  0  0  0  0  0  0  0  0
   -2.6780   -5.1420   -0.2480 C   0  0  0  0  0  0  0  0  0  0  0  0
   -1.8570   -4.2630   -1.0630 C   0  0  0  0  0  0  0  0  0  0  0  0
   -0.4320   -4.6390   -1.4120 C   0  0  0  0  0  0  0  0  0  0  0  0
    0.5820   -4.0930   -0.6320 N   0  0  0  0  0  0  0  0  0  0  0  0
    1.9740   -4.4670   -0.8940 C   0  0  0  0  0  0  0  0  0  0  0  0
    2.3020   -5.0730   -0.0400 H   0  0  0  0  0  0  0  0  0  0  0  0
    2.0530   -5.0900   -1.7900 H   0  0  0  0  0  0  0  0  0  0  0  0
    2.8770   -3.2340   -1.0350 C   0  0  0  0  0  0  0  0  0  0  0  0
    2.6240   -2.6820   -1.9480 H   0  0  0  0  0  0  0  0  0  0  0  0
    3.9140   -3.5650   -1.1140 H   0  0  0  0  0  0  0  0  0  0  0  0
    2.6820   -2.3060    0.0920 N   0  0  0  0  0  0  0  0  0  0  0  0
    1.2880   -1.9230    0.3360 C   0  0  0  0  0  0  0  0  0  0  0  0
    1.2000   -1.2880    1.2220 H   0  0  0  0  0  0  0  0  0  0  0  0
    0.9680   -1.3310   -0.5290 H   0  0  0  0  0  0  0  0  0  0  0  0
    0.3880   -3.1570    0.4860 C   0  0  0  0  0  0  0  0  0  0  0  0
   -0.6550   -2.8450    0.5730 H   0  0  0  0  0  0  0  0  0  0  0  0
    0.6490   -3.7020    1.4000 H   0  0  0  0  0  0  0  0  0  0  0  0
    3.6830   -1.7970    0.9150 C   0  0  0  0  0  0  0  0  0  0  0  0
    5.0950   -2.0620    0.5660 C   0  0  0  0  0  0  0  0  0  0  0  0
    5.8820   -2.8020    1.4540 C   0  0  0  0  0  0  0  0  0  0  0  0
    5.4540   -3.1900    2.3740 H   0  0  0  0  0  0  0  0  0  0  0  0
    7.2220   -3.0370    1.1500 C   0  0  0  0  0  0  0  0  0  0  0  0
    7.8420   -3.6140    1.8310 H   0  0  0  0  0  0  0  0  0  0  0  0
    7.7720   -2.5240   -0.0280 C   0  0  0  0  0  0  0  0  0  0  0  0
    8.8180   -2.7060   -0.2600 H   0  0  0  0  0  0  0  0  0  0  0  0
    6.9860   -1.7680   -0.9010 C   0  0  0  0  0  0  0  0  0  0  0  0
    7.4240   -1.3620   -1.8100 H   0  0  0  0  0  0  0  0  0  0  0  0
    5.6450   -1.5280   -0.6040 C   0  0  0  0  0  0  0  0  0  0  0  0
    5.0410   -0.9260   -1.2770 H   0  0  0  0  0  0  0  0  0  0  0  0
   -2.2960   -3.1960   -1.4930 O   0  0  0  0  0  0  0  0  0  0  0  0
   -0.2730   -5.4120   -2.3500 O   0  0  0  0  0  0  0  0  0  0  0  0
    3.4790   -1.1390    1.9300 O   0  0  0  0  0  0  0  0  0  0  0  0
   -4.7310   -2.8070   -0.9160 O   0  0  0  0  0  0  0  0  0  0  0  0
   -3.7910   -2.8530   -1.2150 H   0  0  0  0  0  0  0  0  0  0  0  0
  1  2  1  0  0  0  0
  1  3  1  0  0  0  0
  1  9  2  0  0  0  0
  3  4  1  0  0  0  0
  3  5  2  0  0  0  0
  5  6  1  0  0  0  0
  5  7  1  0  0  0  0
  7  8  2  0  0  0  0
  7 10  1  0  0  0  0
  8  9  1  0  0  0  0
  8 14  1  0  0  0  0
  9 46  1  0  0  0  0
 10 11  1  0  0  0  0
 10 12  1  0  0  0  0
 12 13  1  0  0  0  0
 12 14  2  0  0  0  0
 14 15  1  0  0  0  0
 15 16  1  0  0  0  0
 15 43  2  0  0  0  0
 16 17  1  0  0  0  0
 16 44  2  0  0  0  0
 17 18  1  0  0  0  0
 17 28  1  0  0  0  0
 18 19  1  0  0  0  0
 18 20  1  0  0  0  0
 18 21  1  0  0  0  0
 21 22  1  0  0  0  0
 21 23  1  0  0  0  0
 21 24  1  0  0  0  0
 24 25  1  0  0  0  0
 24 31  1  0  0  0  0
 25 26  1  0  0  0  0
 25 27  1  0  0  0  0
 25 28  1  0  0  0  0
 28 29  1  0  0  0  0
 28 30  1  0  0  0  0
 31 32  1  0  0  0  0
 31 45  2  0  0  0  0
 32 33  1  0  0  0  0
 32 41  2  0  0  0  0
 33 34  1  0  0  0  0
 33 35  2  0  0  0  0
 35 36  1  0  0  0  0
 35 37  1  0  0  0  0
 37 38  1  0  0  0  0
 37 39  2  0  0  0  0
 39 40  1  0  0  0  0
 39 41  1  0  0  0  0
 41 42  1  0  0  0  0
 46 47  1  0  0  0  0
M  END
>  <Activity>
4.6959

>  <AM1_dipole>
5.93143

>  <AM1_E>
-111861

>  <AM1_Eele>
-832547

>  <AM1_HF>
-42.227

>  <AM1_HOMO>
-8.56577

>  <AM1_IP>
8.56577

>  <AM1_LUMO>
-0.64348

>  <diameter>
15

>  <petitjean>
0.466667

>  <petitjeanSC>
0.875

>  <radius>
8

>  <VDistEq>
3.66276

>  <VDistMa>
9.29304

>  <weinerPath>
2210

>  <weinerPol>
47

>  <BCUT_PEOE_0>
-2.71188

>  <BCUT_PEOE_1>
-0.639966

>  <BCUT_PEOE_2>
0.674797

>  <BCUT_PEOE_3>
2.65028

>  <BCUT_SLOGP_0>
-2.86001

>  <BCUT_SLOGP_1>
-0.548105

>  <BCUT_SLOGP_2>
0.773322

>  <BCUT_SLOGP_3>
2.50396

>  <BCUT_SMR_0>
-2.43203

>  <BCUT_SMR_1>
-0.468214

>  <BCUT_SMR_2>
0.825277

>  <BCUT_SMR_3>
2.92026

>  <GCUT_PEOE_0>
-0.860073

>  <GCUT_PEOE_1>
-0.413052

>  <GCUT_PEOE_2>
0.0818205

>  <GCUT_PEOE_3>
2.65898

>  <GCUT_SLOGP_0>
-0.976487

>  <GCUT_SLOGP_1>
-0.327467

>  <GCUT_SLOGP_2>
0.152363

>  <GCUT_SLOGP_3>
2.65155

>  <GCUT_SMR_0>
-0.508916

>  <GCUT_SMR_1>
-0.216172

>  <GCUT_SMR_2>
0.223923

>  <GCUT_SMR_3>
2.93061

>  <a_aro>
15

>  <a_count>
47

>  <a_IC>
75.3615

>  <a_ICM>
1.60344

>  <a_nH>
19

>  <b_1rotN>
5

>  <b_1rotR>
0.16129

>  <b_ar>
16

>  <b_count>
50

>  <b_double>
3

>  <b_rotN>
5

>  <b_rotR>
0.16129

>  <b_single>
31

>  <b_triple>
0

>  <chi0v>
15.091

>  <chi0v_C>
12.0246

>  <chi1v>
9.03015

>  <chi1v_C>
5.94338

>  <chiral>
0

>  <chiral_u>
0

>  <nmol>
1

>  <reactive>
0

>  <rings>
4

>  <Weight>
377.4

>  <a_heavy>
28

>  <a_nB>
0

>  <a_nBr>
0

>  <a_nC>
21

>  <a_nCl>
0

>  <a_nF>
0

>  <a_nI>
0

>  <a_nN>
3

>  <a_nO>
4

>  <a_nP>
0

>  <a_nS>
0

>  <b_heavy>
31

>  <chi0>
19.673

>  <chi0_C>
13.8112

>  <chi1>
13.5586

>  <chi1_C>
8.04124

>  <FCharge>
0

>  <VAdjEq>
0.398935

>  <VAdjMa>
5.9542

>  <zagreb>
150

>  <balabanJ>
1.29268

>  <PEOE_PC+>
2.60771

>  <PEOE_PC->
-2.60771

>  <PEOE_RPC+>
0.113165

>  <PEOE_RPC->
0.138006

>  <PEOE_VSA+0>
80.6318

>  <PEOE_VSA+1>
83.1786

>  <PEOE_VSA+2>
0

>  <PEOE_VSA+3>
8.61901

>  <PEOE_VSA+4>
10.3242

>  <PEOE_VSA+5>
34.3576

>  <PEOE_VSA+6>
0

>  <PEOE_VSA-0>
49.0196

>  <PEOE_VSA-1>
49.0196

>  <PEOE_VSA-2>
0

>  <PEOE_VSA-3>
0

>  <PEOE_VSA-4>
0

>  <PEOE_VSA-5>
40.7008

>  <PEOE_VSA-6>
7.90443

>  <PEOE_VSA_FHYD>
0.743545

>  <PEOE_VSA_FNEG>
0.40314

>  <PEOE_VSA_FPNEG>
0.13362

>  <PEOE_VSA_FPOL>
0.256455

>  <PEOE_VSA_FPOS>
0.59686

>  <PEOE_VSA_FPPOS>
0.122835

>  <PEOE_VSA_HYD>
270.469

>  <PEOE_VSA_NEG>
146.644

>  <PEOE_VSA_PNEG>
48.6052

>  <PEOE_VSA_POL>
93.2869

>  <PEOE_VSA_POS>
217.111

>  <PEOE_VSA_PPOS>
44.6818

>  <PC+>
5.301

>  <PC->
-5.302

>  <Q_PC+>
5.301

>  <Q_PC->
-5.302

>  <Q_RPC+>
0.12375

>  <Q_RPC->
0.124481

>  <Q_VSA_FHYD>
0.529123

>  <Q_VSA_FNEG>
0.473289

>  <Q_VSA_FPNEG>
0.17928

>  <Q_VSA_FPOL>
0.470877

>  <Q_VSA_FPOS>
0.526711

>  <Q_VSA_FPPOS>
0.291597

>  <Q_VSA_HYD>
192.471

>  <Q_VSA_NEG>
172.162

>  <Q_VSA_PNEG>
65.2142

>  <Q_VSA_POL>
171.284

>  <Q_VSA_POS>
191.594

>  <Q_VSA_PPOS>
106.07

>  <RPC+>
0.12375

>  <RPC->
0.124481

>  <lip_acc>
7

>  <lip_don>
2

>  <lip_druglike>
1

>  <lip_violation>
0

>  <opr_brigid>
22

>  <opr_leadlike>
1

>  <opr_nring>
4

>  <opr_nrot>
5

>  <opr_violation>
0

>  <E>
84.0667

>  <E_ang>
8.80765

>  <E_ele>
16.6953

>  <E_nb>
66.8026

>  <E_oop>
0.030795

>  <E_sol>
-20.2193

>  <E_stb>
0.372601

>  <E_str>
5.95508

>  <E_strain>
0.00619824

>  <E_tor>
2.09797

>  <E_vdw>
50.1073

>  <E_rele>
0

>  <E_rnb>
1.42109e-014

>  <E_rsol>
1.42109e-014

>  <E_rvdw>
0

>  <Kier1>
21.2404

>  <Kier2>
9.42769

>  <Kier3>
4.54179

>  <KierA1>
14.5633

>  <KierA2>
6.36575

>  <KierA3>
3.03337

>  <KierFlex>
3.31095

>  <logS>
-3.66764

>  <MNDO_dipole>
5.03987

>  <MNDO_E>
-112123

>  <MNDO_Eele>
-825136

>  <MNDO_HF>
-60.8313

>  <MNDO_HOMO>
-8.73102

>  <MNDO_IP>
8.73102

>  <MNDO_LUMO>
-0.5507

>  <apol>
56.1371

>  <bpol>
28.2649

>  <mr>
10.415

>  <dipole>
1.49698

>  <dipoleX>
0.872105

>  <dipoleY>
-1.16058

>  <dipoleZ>
0.365268

>  <pmi>
8473.43

>  <pmiX>
7059.21

>  <pmiY>
973.184

>  <pmiZ>
441.038

>  <rgyr>
4.73837

>  <a_acc>
4

>  <a_acid>
0

>  <a_base>
0

>  <a_don>
2

>  <a_hyd>
18

>  <vsa_acc>
40.7008

>  <vsa_acid>
0

>  <vsa_base>
0

>  <vsa_don>
5.68258

>  <vsa_hyd>
249.749

>  <vsa_other>
34.3576

>  <vsa_pol>
59.9503

>  <PM3_dipole>
5.80631

>  <PM3_E>
-102426

>  <PM3_Eele>
-824117

>  <PM3_HF>
-82.8437

>  <PM3_HOMO>
-8.46747

>  <PM3_IP>
8.46747

>  <PM3_LUMO>
-0.75407

>  <SlogP>
2.0408

>  <SlogP_VSA0>
25.3852

>  <SlogP_VSA1>
22.4538

>  <SlogP_VSA2>
40.6477

>  <SlogP_VSA3>
73.7583

>  <SlogP_VSA4>
54.0956

>  <SlogP_VSA5>
0

>  <SlogP_VSA6>
0

>  <SlogP_VSA7>
163.077

>  <SlogP_VSA8>
0

>  <SlogP_VSA9>
5.24343

>  <SMR>
10.3219

>  <SMR_VSA0>
71.5866

>  <SMR_VSA1>
31.6339

>  <SMR_VSA2>
16.7855

>  <SMR_VSA3>
11.6146

>  <SMR_VSA4>
4.7171

>  <SMR_VSA5>
158.36

>  <SMR_VSA6>
89.9635

>  <SMR_VSA7>
0

>  <ASA>
624.496

>  <ASA+>
262.934

>  <ASA->
255.598

>  <ASA_H>
446.53

>  <ASA_P>
177.966

>  <CASA+>
1393.81

>  <CASA->
1355.18

>  <DASA>
7.33607

>  <DCASA>
38.6329

>  <FASA+>
0.421033

>  <FASA->
0.409286

>  <FASA_H>
0.715024

>  <FASA_P>
0.284976

>  <FCASA+>
2.2319

>  <FCASA->
2.17004

>  <VSA>
379.422

>  <TPSA>
93.71

>  <density>
0.763714

>  <vdw_area>
363.756

>  <vdw_vol>
494.164

>  <vsurf_A>
2.47296

>  <vsurf_CP>
0.111373

>  <vsurf_CW1>
2.69178

>  <vsurf_CW2>
2.17001

>  <vsurf_CW3>
1.32539

>  <vsurf_CW4>
0.60296

>  <vsurf_CW5>
0.266073

>  <vsurf_CW6>
0.0841063

>  <vsurf_CW7>
0.0100055

>  <vsurf_CW8>
0

>  <vsurf_D1>
875.75

>  <vsurf_D2>
517.125

>  <vsurf_D3>
383.375

>  <vsurf_D4>
325

>  <vsurf_D5>
282.25

>  <vsurf_D6>
231.75

>  <vsurf_D7>
134.25

>  <vsurf_D8>
73.125

>  <vsurf_DD12>
6.22495

>  <vsurf_DD13>
6.44205

>  <vsurf_DD23>
0.5

>  <vsurf_DW12>
0.707107

>  <vsurf_DW13>
0.707107

>  <vsurf_DW23>
0.707107

>  <vsurf_EDmin1>
-2.60698

>  <vsurf_EDmin2>
-2.58222

>  <vsurf_EDmin3>
-2.57168

>  <vsurf_EWmin1>
-5.88466

>  <vsurf_EWmin2>
-5.83538

>  <vsurf_EWmin3>
-5.4084

>  <vsurf_G>
1.34373

>  <vsurf_HB1>
324

>  <vsurf_HB2>
364.625

>  <vsurf_HB3>
317.375

>  <vsurf_HB4>
120.125

>  <vsurf_HB5>
40.5

>  <vsurf_HB6>
11.625

>  <vsurf_HB7>
1.75

>  <vsurf_HB8>
0

>  <vsurf_HL1>
0.1239

>  <vsurf_HL2>
0.0396154

>  <vsurf_ID1>
0.693892

>  <vsurf_ID2>
0.691285

>  <vsurf_ID3>
0.7941

>  <vsurf_ID4>
0.969973

>  <vsurf_ID5>
1.06261

>  <vsurf_ID6>
1.03475

>  <vsurf_ID7>
0.595323

>  <vsurf_ID8>
0.940606

>  <vsurf_IW1>
0.142352

>  <vsurf_IW2>
0.663414

>  <vsurf_IW3>
1.07655

>  <vsurf_IW4>
1.64484

>  <vsurf_IW5>
1.69035

>  <vsurf_IW6>
2.16663

>  <vsurf_IW7>
3.00939

>  <vsurf_IW8>
0

>  <vsurf_R>
1.43877

>  <vsurf_S>
568.022

>  <vsurf_V>
817.25

>  <vsurf_W1>
1396.88

>  <vsurf_W2>
819.625

>  <vsurf_W3>
398.5

>  <vsurf_W4>
136.625

>  <vsurf_W5>
47.5

>  <vsurf_W6>
12.875

>  <vsurf_W7>
1.75

>  <vsurf_W8>
0

>  <vsurf_Wp1>
1072.88

>  <vsurf_Wp2>
455

>  <vsurf_Wp3>
81.125

>  <vsurf_Wp4>
16.5

>  <vsurf_Wp5>
7

>  <vsurf_Wp6>
1.25

>  <vsurf_Wp7>
0

>  <vsurf_Wp8>
0

>  <dens>
1.08215

>  <glob>
0.0575267

>  <std_dim1>
4.69337

>  <std_dim2>
1.38719

>  <std_dim3>
1.12569

>  <vol>
348.75

>  <logP(o/w)>
1.773

$$$$
D1.cdx
  MOE2008           3D

 50 53  0  0  0  0  0  0  0  0999 V2000
   -6.2230   -8.7830   -0.6960 C   0  0  0  0  0  0  0  0  0  0  0  0
   -7.1390   -8.2080   -0.5810 H   0  0  0  0  0  0  0  0  0  0  0  0
   -6.1880   -9.8570   -1.5760 C   0  0  0  0  0  0  0  0  0  0  0  0
   -7.0750  -10.1110   -2.1510 H   0  0  0  0  0  0  0  0  0  0  0  0
   -5.0300  -10.6220   -1.7230 C   0  0  0  0  0  0  0  0  0  0  0  0
   -5.0090  -11.4640   -2.4080 H   0  0  0  0  0  0  0  0  0  0  0  0
   -3.9120  -10.2790   -0.9500 C   0  0  0  0  0  0  0  0  0  0  0  0
   -3.8980   -9.2040   -0.0520 C   0  0  0  0  0  0  0  0  0  0  0  0
   -5.0860   -8.4360    0.0490 C   0  0  0  0  0  0  0  0  0  0  0  0
   -2.6770  -10.8780   -0.8950 N   0  0  0  0  0  0  0  0  0  0  0  0
   -2.4050  -11.6820   -1.4440 H   0  0  0  0  0  0  0  0  0  0  0  0
   -1.8800  -10.2340    0.0070 C   0  0  0  0  0  0  0  0  0  0  0  0
   -0.8700  -10.5850    0.1800 H   0  0  0  0  0  0  0  0  0  0  0  0
   -2.5930   -9.1830    0.5610 C   0  0  0  0  0  0  0  0  0  0  0  0
   -2.0490   -8.2720    1.5660 C   0  0  0  0  0  0  0  0  0  0  0  0
   -0.6460   -8.5020    2.1010 C   0  0  0  0  0  0  0  0  0  0  0  0
    0.3860   -7.7940    1.4870 N   0  0  0  0  0  0  0  0  0  0  0  0
    1.7630   -8.0130    1.9310 C   0  0  0  0  0  0  0  0  0  0  0  0
    1.9630   -7.2710    2.7130 H   0  0  0  0  0  0  0  0  0  0  0  0
    1.8610   -9.0050    2.3850 H   0  0  0  0  0  0  0  0  0  0  0  0
    2.7680   -7.8560    0.7860 C   0  0  0  0  0  0  0  0  0  0  0  0
    2.5900   -8.6330    0.0340 H   0  0  0  0  0  0  0  0  0  0  0  0
    3.7880   -7.9740    1.1660 H   0  0  0  0  0  0  0  0  0  0  0  0
    2.6420   -6.5620    0.0970 N   0  0  0  0  0  0  0  0  0  0  0  0
    1.3620   -5.8630    0.2350 C   0  0  0  0  0  0  0  0  0  0  0  0
    1.4520   -5.2210    1.1200 H   0  0  0  0  0  0  0  0  0  0  0  0
    1.1930   -5.2100   -0.6270 H   0  0  0  0  0  0  0  0  0  0  0  0
    0.1810   -6.8230    0.4040 C   0  0  0  0  0  0  0  0  0  0  0  0
    0.0390   -7.4050   -0.5140 H   0  0  0  0  0  0  0  0  0  0  0  0
   -0.7370   -6.2540    0.5820 H   0  0  0  0  0  0  0  0  0  0  0  0
    3.6530   -5.9500   -0.6430 C   0  0  0  0  0  0  0  0  0  0  0  0
    4.9130   -6.6900   -0.8770 C   0  0  0  0  0  0  0  0  0  0  0  0
    4.9140   -7.8830   -1.6070 C   0  0  0  0  0  0  0  0  0  0  0  0
    3.9900   -8.2890   -2.0090 H   0  0  0  0  0  0  0  0  0  0  0  0
    6.1190   -8.5480   -1.8330 C   0  0  0  0  0  0  0  0  0  0  0  0
    6.1320   -9.4770   -2.3980 H   0  0  0  0  0  0  0  0  0  0  0  0
    7.3140   -8.0150   -1.3450 C   0  0  0  0  0  0  0  0  0  0  0  0
    8.2520   -8.5340   -1.5270 H   0  0  0  0  0  0  0  0  0  0  0  0
    7.3110   -6.8120   -0.6370 C   0  0  0  0  0  0  0  0  0  0  0  0
    8.2460   -6.3950   -0.2710 H   0  0  0  0  0  0  0  0  0  0  0  0
    6.1100   -6.1420   -0.4060 C   0  0  0  0  0  0  0  0  0  0  0  0
    6.1090   -5.1990    0.1350 H   0  0  0  0  0  0  0  0  0  0  0  0
   -2.6410   -7.2960    2.0170 O   0  0  0  0  0  0  0  0  0  0  0  0
   -0.5100   -9.3050    3.0180 O   0  0  0  0  0  0  0  0  0  0  0  0
    3.5720   -4.8170   -1.1090 O   0  0  0  0  0  0  0  0  0  0  0  0
   -5.2020   -7.3810    0.9280 O   0  0  0  0  0  0  0  0  0  0  0  0
   -4.9230   -6.1540    0.2540 C   0  0  0  0  0  0  0  0  0  0  0  0
   -4.8990   -5.3580    1.0030 H   0  0  0  0  0  0  0  0  0  0  0  0
   -5.7140   -5.9170   -0.4660 H   0  0  0  0  0  0  0  0  0  0  0  0
   -3.9490   -6.1780   -0.2490 H   0  0  0  0  0  0  0  0  0  0  0  0
  1  2  1  0  0  0  0
  1  3  1  0  0  0  0
  1  9  2  0  0  0  0
  3  4  1  0  0  0  0
  3  5  2  0  0  0  0
  5  6  1  0  0  0  0
  5  7  1  0  0  0  0
  7  8  2  0  0  0  0
  7 10  1  0  0  0  0
  8  9  1  0  0  0  0
  8 14  1  0  0  0  0
  9 46  1  0  0  0  0
 10 11  1  0  0  0  0
 10 12  1  0  0  0  0
 12 13  1  0  0  0  0
 12 14  2  0  0  0  0
 14 15  1  0  0  0  0
 15 16  1  0  0  0  0
 15 43  2  0  0  0  0
 16 17  1  0  0  0  0
 16 44  2  0  0  0  0
 17 18  1  0  0  0  0
 17 28  1  0  0  0  0
 18 19  1  0  0  0  0
 18 20  1  0  0  0  0
 18 21  1  0  0  0  0
 21 22  1  0  0  0  0
 21 23  1  0  0  0  0
 21 24  1  0  0  0  0
 24 25  1  0  0  0  0
 24 31  1  0  0  0  0
 25 26  1  0  0  0  0
 25 27  1  0  0  0  0
 25 28  1  0  0  0  0
 28 29  1  0  0  0  0
 28 30  1  0  0  0  0
 31 32  1  0  0  0  0
 31 45  2  0  0  0  0
 32 33  1  0  0  0  0
 32 41  2  0  0  0  0
 33 34  1  0  0  0  0
 33 35  2  0  0  0  0
 35 36  1  0  0  0  0
 35 37  1  0  0  0  0
 37 38  1  0  0  0  0
 37 39  2  0  0  0  0
 39 40  1  0  0  0  0
 39 41  1  0  0  0  0
 41 42  1  0  0  0  0
 46 47  1  0  0  0  0
 47 48  1  0  0  0  0
 47 49  1  0  0  0  0
 47 50  1  0  0  0  0
M  END
>  <Activity>
9.2839

>  <AM1_dipole>
5.75782

>  <AM1_E>
-115433

>  <AM1_Eele>
-890879

>  <AM1_HF>
-28.8768

>  <AM1_HOMO>
-8.78843

>  <AM1_IP>
8.78843

>  <AM1_LUMO>
-0.52211

>  <diameter>
15

>  <petitjean>
0.466667

>  <petitjeanSC>
0.875

>  <radius>
8

>  <VDistEq>
3.69208

>  <VDistMa>
9.39793

>  <weinerPath>
2425

>  <weinerPol>
49

>  <BCUT_PEOE_0>
-2.71188

>  <BCUT_PEOE_1>
-0.604951

>  <BCUT_PEOE_2>
0.615787

>  <BCUT_PEOE_3>
2.65028

>  <BCUT_SLOGP_0>
-2.86001

>  <BCUT_SLOGP_1>
-0.508884

>  <BCUT_SLOGP_2>
0.69672

>  <BCUT_SLOGP_3>
2.50407

>  <BCUT_SMR_0>
-2.43203

>  <BCUT_SMR_1>
-0.417127

>  <BCUT_SMR_2>
0.779723

>  <BCUT_SMR_3>
2.92028

>  <GCUT_PEOE_0>
-0.860111

>  <GCUT_PEOE_1>
-0.400429

>  <GCUT_PEOE_2>
0.0729124

>  <GCUT_PEOE_3>
2.67922

>  <GCUT_SLOGP_0>
-0.976518

>  <GCUT_SLOGP_1>
-0.327385

>  <GCUT_SLOGP_2>
0.140693

>  <GCUT_SLOGP_3>
2.67779

>  <GCUT_SMR_0>
-0.508945

>  <GCUT_SMR_1>
-0.206585

>  <GCUT_SMR_2>
0.183595

>  <GCUT_SMR_3>
2.95193

>  <a_aro>
15

>  <a_count>
50

>  <a_IC>
79.0918

>  <a_ICM>
1.58184

>  <a_nH>
21

>  <b_1rotN>
6

>  <b_1rotR>
0.1875

>  <b_ar>
16

>  <b_count>
53

>  <b_double>
3

>  <b_rotN>
6

>  <b_rotR>
0.1875

>  <b_single>
34

>  <b_triple>
0

>  <chi0v>
16.052

>  <chi0v_C>
13.0246

>  <chi1v>
9.41892

>  <chi1v_C>
5.94338

>  <chiral>
0

>  <chiral_u>
0

>  <nmol>
1

>  <reactive>
0

>  <rings>
4

>  <Weight>
391.427

>  <a_heavy>
29

>  <a_nB>
0

>  <a_nBr>
0

>  <a_nC>
22

>  <a_nCl>
0

>  <a_nF>
0

>  <a_nI>
0

>  <a_nN>
3

>  <a_nO>
4

>  <a_nP>
0

>  <a_nS>
0

>  <b_heavy>
32

>  <chi0>
20.3801

>  <chi0_C>
14.8112

>  <chi1>
14.0966

>  <chi1_C>
8.04124

>  <FCharge>
0

>  <VAdjEq>
0.388286

>  <VAdjMa>
6

>  <zagreb>
154

>  <balabanJ>
1.30337

>  <PEOE_PC+>
2.59553

>  <PEOE_PC->
-2.59553

>  <PEOE_RPC+>
0.113695

>  <PEOE_RPC->
0.138653

>  <PEOE_VSA+0>
105.63

>  <PEOE_VSA+1>
95.9748

>  <PEOE_VSA+2>
0

>  <PEOE_VSA+3>
8.61901

>  <PEOE_VSA+4>
0

>  <PEOE_VSA+5>
34.3576

>  <PEOE_VSA+6>
0

>  <PEOE_VSA-0>
49.0196

>  <PEOE_VSA-1>
49.0196

>  <PEOE_VSA-2>
0

>  <PEOE_VSA-3>
0

>  <PEOE_VSA-4>
0

>  <PEOE_VSA-5>
40.7008

>  <PEOE_VSA-6>
2.64065

>  <PEOE_VSA_FHYD>
0.798687

>  <PEOE_VSA_FNEG>
0.366308

>  <PEOE_VSA_FPNEG>
0.112295

>  <PEOE_VSA_FPOL>
0.201313

>  <PEOE_VSA_FPOS>
0.633692

>  <PEOE_VSA_FPPOS>
0.0890182

>  <PEOE_VSA_HYD>
308.263

>  <PEOE_VSA_NEG>
141.381

>  <PEOE_VSA_PNEG>
43.3414

>  <PEOE_VSA_POL>
77.699

>  <PEOE_VSA_POS>
244.581

>  <PEOE_VSA_PPOS>
34.3576

>  <PC+>
5.131

>  <PC->
-5.133

>  <Q_PC+>
5.131

>  <Q_PC->
-5.133

>  <Q_RPC+>
0.12785

>  <Q_RPC->
0.12858

>  <Q_VSA_FHYD>
0.531834

>  <Q_VSA_FNEG>
0.432421

>  <Q_VSA_FPNEG>
0.155327

>  <Q_VSA_FPOL>
0.468166

>  <Q_VSA_FPOS>
0.567579

>  <Q_VSA_FPPOS>
0.312838

>  <Q_VSA_HYD>
205.268

>  <Q_VSA_NEG>
166.898

>  <Q_VSA_PNEG>
59.9504

>  <Q_VSA_POL>
180.694

>  <Q_VSA_POS>
219.064

>  <Q_VSA_PPOS>
120.744

>  <RPC+>
0.12785

>  <RPC->
0.12858

>  <lip_acc>
7

>  <lip_don>
1

>  <lip_druglike>
1

>  <lip_violation>
0

>  <opr_brigid>
22

>  <opr_leadlike>
1

>  <opr_nring>
4

>  <opr_nrot>
6

>  <opr_violation>
0

>  <E>
108.117

>  <E_ang>
8.72727

>  <E_ele>
32.0624

>  <E_nb>
80.8009

>  <E_oop>
0.0782514

>  <E_sol>
-21.69

>  <E_stb>
0.552522

>  <E_str>
6.26581

>  <E_strain>
0.0043384

>  <E_tor>
11.6918

>  <E_vdw>
48.7385

>  <E_rele>
0

>  <E_rnb>
-3.55271e-014

>  <E_rsol>
-3.55271e-014

>  <E_rvdw>
0

>  <Kier1>
22.2031

>  <Kier2>
10.08

>  <Kier3>
4.76896

>  <KierA1>
15.4407

>  <KierA2>
6.91129

>  <KierA3>
3.23572

>  <KierFlex>
3.67983

>  <logS>
-4.07997

>  <MNDO_dipole>
6.32103

>  <MNDO_E>
-115716

>  <MNDO_Eele>
-882367

>  <MNDO_HF>
-50.7996

>  <MNDO_HOMO>
-8.70515

>  <MNDO_IP>
8.70515

>  <MNDO_LUMO>
-0.52088

>  <apol>
59.2307

>  <bpol>
32.3673

>  <mr>
10.924

>  <dipole>
1.69255

>  <dipoleX>
0.72917

>  <dipoleY>
-1.03992

>  <dipoleZ>
-1.11875

>  <pmi>
8511.68

>  <pmiX>
6871.01

>  <pmiY>
974.539

>  <pmiZ>
666.127

>  <rgyr>
4.66318

>  <a_acc>
4

>  <a_acid>
0

>  <a_base>
0

>  <a_don>
1

>  <a_hyd>
19

>  <vsa_acc>
43.2045

>  <vsa_acid>
0

>  <vsa_base>
0

>  <vsa_don>
5.68258

>  <vsa_hyd>
285.408

>  <vsa_other>
34.3576

>  <vsa_pol>
48.8871

>  <PM3_dipole>
5.50314

>  <PM3_E>
-105849

>  <PM3_Eele>
-870871

>  <PM3_HF>
-63.1902

>  <PM3_HOMO>
-8.67924

>  <PM3_IP>
8.67924

>  <PM3_LUMO>
-0.53586

>  <SlogP>
2.3438

>  <SlogP_VSA0>
10.9999

>  <SlogP_VSA1>
22.4538

>  <SlogP_VSA2>
40.6477

>  <SlogP_VSA3>
73.7583

>  <SlogP_VSA4>
54.0956

>  <SlogP_VSA5>
35.3839

>  <SlogP_VSA6>
0

>  <SlogP_VSA7>
163.077

>  <SlogP_VSA8>
0

>  <SlogP_VSA9>
5.24343

>  <SMR>
10.8107

>  <SMR_VSA0>
71.5866

>  <SMR_VSA1>
17.2485

>  <SMR_VSA2>
16.7855

>  <SMR_VSA3>
11.6146

>  <SMR_VSA4>
4.7171

>  <SMR_VSA5>
158.36

>  <SMR_VSA6>
89.9635

>  <SMR_VSA7>
35.3839

>  <ASA>
646.796

>  <ASA+>
267.392

>  <ASA->
233.917

>  <ASA_H>
467.138

>  <ASA_P>
179.658

>  <CASA+>
1371.99

>  <CASA->
1200.7

>  <DASA>
33.4742

>  <DCASA>
171.288

>  <FASA+>
0.41341

>  <FASA->
0.361656

>  <FASA_H>
0.722234

>  <FASA_P>
0.277766

>  <FCASA+>
2.1212

>  <FCASA->
1.85638

>  <VSA>
407.445

>  <TPSA>
82.71

>  <density>
0.751685

>  <vdw_area>
385.962

>  <vdw_vol>
520.732

>  <vsurf_A>
3.32858

>  <vsurf_CP>
0.126095

>  <vsurf_CW1>
2.63724

>  <vsurf_CW2>
2.03594

>  <vsurf_CW3>
1.23703

>  <vsurf_CW4>
0.542848

>  <vsurf_CW5>
0.253354

>  <vsurf_CW6>
0.0759027

>  <vsurf_CW7>
0.00268966

>  <vsurf_CW8>
0

>  <vsurf_D1>
898

>  <vsurf_D2>
536.125

>  <vsurf_D3>
409.75

>  <vsurf_D4>
355.375

>  <vsurf_D5>
311

>  <vsurf_D6>
252.25

>  <vsurf_D7>
144.5

>  <vsurf_D8>
78

>  <vsurf_DD12>
0.5

>  <vsurf_DD13>
0.707107

>  <vsurf_DD23>
0.5

>  <vsurf_DW12>
0.707107

>  <vsurf_DW13>
0.5

>  <vsurf_DW23>
1.11803

>  <vsurf_EDmin1>
-2.87137

>  <vsurf_EDmin2>
-2.79873

>  <vsurf_EDmin3>
-2.71332

>  <vsurf_EWmin1>
-5.38546

>  <vsurf_EWmin2>
-5.33439

>  <vsurf_EWmin3>
-5.28675

>  <vsurf_G>
1.3443

>  <vsurf_HB1>
301.875

>  <vsurf_HB2>
340

>  <vsurf_HB3>
297.125

>  <vsurf_HB4>
113.875

>  <vsurf_HB5>
40.5

>  <vsurf_HB6>
10.125

>  <vsurf_HB7>
0.875

>  <vsurf_HB8>
0

>  <vsurf_HL1>
0.115009

>  <vsurf_HL2>
0.0323602

>  <vsurf_ID1>
1.08798

>  <vsurf_ID2>
1.0664

>  <vsurf_ID3>
1.07886

>  <vsurf_ID4>
1.18502

>  <vsurf_ID5>
1.25719

>  <vsurf_ID6>
1.33644

>  <vsurf_ID7>
1.17502

>  <vsurf_ID8>
1.05728

>  <vsurf_IW1>
0.188919

>  <vsurf_IW2>
0.563687

>  <vsurf_IW3>
1.20512

>  <vsurf_IW4>
2.01191

>  <vsurf_IW5>
2.25116

>  <vsurf_IW6>
2.62986

>  <vsurf_IW7>
2.92997

>  <vsurf_IW8>
0

>  <vsurf_R>
1.46372

>  <vsurf_S>
588.654

>  <vsurf_V>
861.625

>  <vsurf_W1>
1385.5

>  <vsurf_W2>
794.625

>  <vsurf_W3>
385

>  <vsurf_W4>
130.875

>  <vsurf_W5>
47.125

>  <vsurf_W6>
11.5

>  <vsurf_W7>
0.875

>  <vsurf_W8>
0

>  <vsurf_Wp1>
1083.63

>  <vsurf_Wp2>
454.625

>  <vsurf_Wp3>
87.875

>  <vsurf_Wp4>
17

>  <vsurf_Wp5>
6.625

>  <vsurf_Wp6>
1.375

>  <vsurf_Wp7>
0

>  <vsurf_Wp8>
0

>  <dens>
1.05648

>  <glob>
0.0720242

>  <std_dim1>
4.46866

>  <std_dim2>
1.73285

>  <std_dim3>
1.19927

>  <vol>
370.5

>  <logP(o/w)>
2.037

$$$$
D1.cdx
  MOE2008           3D

 53 56  0  0  0  0  0  0  0  0999 V2000
   -6.5160  -12.4780   -0.8620 C   0  0  0  0  0  0  0  0  0  0  0  0
   -7.3060  -11.7340   -0.9180 H   0  0  0  0  0  0  0  0  0  0  0  0
   -6.7730  -13.7880   -1.2470 C   0  0  0  0  0  0  0  0  0  0  0  0
   -7.7650  -14.0630   -1.5950 H   0  0  0  0  0  0  0  0  0  0  0  0
   -5.7700  -14.7570   -1.1920 C   0  0  0  0  0  0  0  0  0  0  0  0
   -5.9750  -15.7810   -1.4920 H   0  0  0  0  0  0  0  0  0  0  0  0
   -4.4970  -14.3640   -0.7550 C   0  0  0  0  0  0  0  0  0  0  0  0
   -4.1890  -13.0550   -0.3600 C   0  0  0  0  0  0  0  0  0  0  0  0
   -5.2440  -12.1100   -0.3980 C   0  0  0  0  0  0  0  0  0  0  0  0
   -3.3540  -15.1140   -0.6280 N   0  0  0  0  0  0  0  0  0  0  0  0
   -3.2900  -16.1020   -0.8370 H   0  0  0  0  0  0  0  0  0  0  0  0
   -2.3260  -14.3340   -0.1810 C   0  0  0  0  0  0  0  0  0  0  0  0
   -1.3470  -14.7710   -0.0260 H   0  0  0  0  0  0  0  0  0  0  0  0
   -2.7920  -13.0420   -0.0020 C   0  0  0  0  0  0  0  0  0  0  0  0
   -1.9570  -11.9360    0.4620 C   0  0  0  0  0  0  0  0  0  0  0  0
   -0.5130  -12.2000    0.8420 C   0  0  0  0  0  0  0  0  0  0  0  0
    0.4610  -11.8850   -0.1010 N   0  0  0  0  0  0  0  0  0  0  0  0
    1.8710  -12.1380    0.2010 C   0  0  0  0  0  0  0  0  0  0  0  0
    1.9970  -12.4950    1.2270 H   0  0  0  0  0  0  0  0  0  0  0  0
    2.1990  -12.9390   -0.4720 H   0  0  0  0  0  0  0  0  0  0  0  0
    2.7270  -10.8830   -0.0240 C   0  0  0  0  0  0  0  0  0  0  0  0
    3.7780  -11.1510    0.1000 H   0  0  0  0  0  0  0  0  0  0  0  0
    2.4780  -10.1170    0.7200 H   0  0  0  0  0  0  0  0  0  0  0  0
    2.4670  -10.2910   -1.3470 N   0  0  0  0  0  0  0  0  0  0  0  0
    1.0510  -10.0450   -1.6450 C   0  0  0  0  0  0  0  0  0  0  0  0
    0.7200   -9.2530   -0.9630 H   0  0  0  0  0  0  0  0  0  0  0  0
    0.9180   -9.6780   -2.6670 H   0  0  0  0  0  0  0  0  0  0  0  0
    0.2060  -11.3060   -1.4280 C   0  0  0  0  0  0  0  0  0  0  0  0
    0.4800  -12.0730   -2.1630 H   0  0  0  0  0  0  0  0  0  0  0  0
   -0.8510  -11.0750   -1.5740 H   0  0  0  0  0  0  0  0  0  0  0  0
    3.4280   -9.9690   -2.3020 C   0  0  0  0  0  0  0  0  0  0  0  0
    4.8570  -10.0440   -1.9280 C   0  0  0  0  0  0  0  0  0  0  0  0
    5.6960  -10.9090   -2.6370 C   0  0  0  0  0  0  0  0  0  0  0  0
    5.2960  -11.5310   -3.4340 H   0  0  0  0  0  0  0  0  0  0  0  0
    7.0510  -10.9670   -2.3160 C   0  0  0  0  0  0  0  0  0  0  0  0
    7.7110  -11.6390   -2.8580 H   0  0  0  0  0  0  0  0  0  0  0  0
    7.5640  -10.1560   -1.3010 C   0  0  0  0  0  0  0  0  0  0  0  0
    8.6220  -10.2020   -1.0540 H   0  0  0  0  0  0  0  0  0  0  0  0
    6.7260   -9.2780   -0.6100 C   0  0  0  0  0  0  0  0  0  0  0  0
    7.1340   -8.6400    0.1710 H   0  0  0  0  0  0  0  0  0  0  0  0
    5.3690   -9.2120   -0.9270 C   0  0  0  0  0  0  0  0  0  0  0  0
    4.7220   -8.5160   -0.4000 H   0  0  0  0  0  0  0  0  0  0  0  0
   -2.3340  -10.7730    0.5680 O   0  0  0  0  0  0  0  0  0  0  0  0
   -0.3010  -12.6820    1.9500 O   0  0  0  0  0  0  0  0  0  0  0  0
    3.1730   -9.6230   -3.4520 O   0  0  0  0  0  0  0  0  0  0  0  0
   -5.0620  -10.7860   -0.0540 O   0  0  0  0  0  0  0  0  0  0  0  0
   -5.3920  -10.5910    1.3270 C   0  0  0  0  0  0  0  0  0  0  0  0
   -6.4350  -10.8730    1.5150 H   0  0  0  0  0  0  0  0  0  0  0  0
   -4.7370  -11.1930    1.9670 H   0  0  0  0  0  0  0  0  0  0  0  0
   -5.2090   -9.1200    1.6530 C   0  0  0  0  0  0  0  0  0  0  0  0
   -5.8520   -8.5020    1.0170 H   0  0  0  0  0  0  0  0  0  0  0  0
   -4.1770   -8.8060    1.4630 H   0  0  0  0  0  0  0  0  0  0  0  0
   -5.4510   -8.9200    2.7000 H   0  0  0  0  0  0  0  0  0  0  0  0
  1  2  1  0  0  0  0
  1  3  1  0  0  0  0
  1  9  2  0  0  0  0
  3  4  1  0  0  0  0
  3  5  2  0  0  0  0
  5  6  1  0  0  0  0
  5  7  1  0  0  0  0
  7  8  2  0  0  0  0
  7 10  1  0  0  0  0
  8  9  1  0  0  0  0
  8 14  1  0  0  0  0
  9 46  1  0  0  0  0
 10 11  1  0  0  0  0
 10 12  1  0  0  0  0
 12 13  1  0  0  0  0
 12 14  2  0  0  0  0
 14 15  1  0  0  0  0
 15 16  1  0  0  0  0
 15 43  2  0  0  0  0
 16 17  1  0  0  0  0
 16 44  2  0  0  0  0
 17 18  1  0  0  0  0
 17 28  1  0  0  0  0
 18 19  1  0  0  0  0
 18 20  1  0  0  0  0
 18 21  1  0  0  0  0
 21 22  1  0  0  0  0
 21 23  1  0  0  0  0
 21 24  1  0  0  0  0
 24 25  1  0  0  0  0
 24 31  1  0  0  0  0
 25 26  1  0  0  0  0
 25 27  1  0  0  0  0
 25 28  1  0  0  0  0
 28 29  1  0  0  0  0
 28 30  1  0  0  0  0
 31 32  1  0  0  0  0
 31 45  2  0  0  0  0
 32 33  1  0  0  0  0
 32 41  2  0  0  0  0
 33 34  1  0  0  0  0
 33 35  2  0  0  0  0
 35 36  1  0  0  0  0
 35 37  1  0  0  0  0
 37 38  1  0  0  0  0
 37 39  2  0  0  0  0
 39 40  1  0  0  0  0
 39 41  1  0  0  0  0
 41 42  1  0  0  0  0
 46 47  1  0  0  0  0
 47 48  1  0  0  0  0
 47 49  1  0  0  0  0
 47 50  1  0  0  0  0
 50 51  1  0  0  0  0
 50 52  1  0  0  0  0
 50 53  1  0  0  0  0
M  END
>  <Activity>
9.3467

>  <AM1_dipole>
4.7814

>  <AM1_E>
-119029

>  <AM1_Eele>
-947125

>  <AM1_HF>
-37.5504

>  <AM1_HOMO>
-8.7245

>  <AM1_IP>
8.7245

>  <AM1_LUMO>
-0.43075

>  <diameter>
16

>  <petitjean>
0.5

>  <petitjeanSC>
1

>  <radius>
8

>  <VDistEq>
3.73867

>  <VDistMa>
9.49835

>  <weinerPath>
2669

>  <weinerPol>
50

>  <BCUT_PEOE_0>
-2.71189

>  <BCUT_PEOE_1>
-0.602214

>  <BCUT_PEOE_2>
0.61486

>  <BCUT_PEOE_3>
2.65029

>  <BCUT_SLOGP_0>
-2.86001

>  <BCUT_SLOGP_1>
-0.505242

>  <BCUT_SLOGP_2>
0.696397

>  <BCUT_SLOGP_3>
2.50439

>  <BCUT_SMR_0>
-2.43203

>  <BCUT_SMR_1>
-0.417041

>  <BCUT_SMR_2>
0.77274

>  <BCUT_SMR_3>
2.92029

>  <GCUT_PEOE_0>
-0.860114

>  <GCUT_PEOE_1>
-0.398387

>  <GCUT_PEOE_2>
0.0729124

>  <GCUT_PEOE_3>
2.69783

>  <GCUT_SLOGP_0>
-0.976519

>  <GCUT_SLOGP_1>
-0.327374

>  <GCUT_SLOGP_2>
0.140681

>  <GCUT_SLOGP_3>
2.70338

>  <GCUT_SMR_0>
-0.513673

>  <GCUT_SMR_1>
-0.205973

>  <GCUT_SMR_2>
0.183591

>  <GCUT_SMR_3>
2.97039

>  <a_aro>
15

>  <a_count>
53

>  <a_IC>
82.741

>  <a_ICM>
1.56115

>  <a_nH>
23

>  <b_1rotN>
7

>  <b_1rotR>
0.212121

>  <b_ar>
16

>  <b_count>
56

>  <b_double>
3

>  <b_rotN>
7

>  <b_rotR>
0.212121

>  <b_single>
37

>  <b_triple>
0

>  <chi0v>
16.7591

>  <chi0v_C>
13.7317

>  <chi1v>
10.0065

>  <chi1v_C>
6.65048

>  <chiral>
0

>  <chiral_u>
0

>  <nmol>
1

>  <reactive>
0

>  <rings>
4

>  <Weight>
405.454

>  <a_heavy>
30

>  <a_nB>
0

>  <a_nBr>
0

>  <a_nC>
23

>  <a_nCl>
0

>  <a_nF>
0

>  <a_nI>
0

>  <a_nN>
3

>  <a_nO>
4

>  <a_nP>
0

>  <a_nS>
0

>  <b_heavy>
33

>  <chi0>
21.0872

>  <chi0_C>
15.5183

>  <chi1>
14.5966

>  <chi1_C>
8.74835

>  <FCharge>
0

>  <VAdjEq>
0.378242

>  <VAdjMa>
6.04439

>  <zagreb>
158

>  <balabanJ>
1.30668

>  <PEOE_PC+>
2.63365

>  <PEOE_PC->
-2.63365

>  <PEOE_RPC+>
0.11205

>  <PEOE_RPC->
0.136647

>  <PEOE_VSA+0>
93.428

>  <PEOE_VSA+1>
106.661

>  <PEOE_VSA+2>
0

>  <PEOE_VSA+3>
8.61901

>  <PEOE_VSA+4>
0

>  <PEOE_VSA+5>
34.3576

>  <PEOE_VSA+6>
0

>  <PEOE_VSA-0>
67.7673

>  <PEOE_VSA-1>
49.0196

>  <PEOE_VSA-2>
0

>  <PEOE_VSA-3>
0

>  <PEOE_VSA-4>
0

>  <PEOE_VSA-5>
40.7008

>  <PEOE_VSA-6>
2.64065

>  <PEOE_VSA_FHYD>
0.807291

>  <PEOE_VSA_FNEG>
0.39715

>  <PEOE_VSA_FPNEG>
0.107495

>  <PEOE_VSA_FPOL>
0.192709

>  <PEOE_VSA_FPOS>
0.60285

>  <PEOE_VSA_FPPOS>
0.0852136

>  <PEOE_VSA_HYD>
325.495

>  <PEOE_VSA_NEG>
160.128

>  <PEOE_VSA_PNEG>
43.3414

>  <PEOE_VSA_POL>
77.699

>  <PEOE_VSA_POS>
243.065

>  <PEOE_VSA_PPOS>
34.3576

>  <PC+>
5.131

>  <PC->
-5.133

>  <Q_PC+>
5.131

>  <Q_PC->
-5.133

>  <Q_RPC+>
0.12785

>  <Q_RPC->
0.12858

>  <Q_VSA_FHYD>
0.57676

>  <Q_VSA_FNEG>
0.41394

>  <Q_VSA_FPNEG>
0.148689

>  <Q_VSA_FPOL>
0.42324

>  <Q_VSA_FPOS>
0.586061

>  <Q_VSA_FPPOS>
0.274551

>  <Q_VSA_HYD>
232.546

>  <Q_VSA_NEG>
166.898

>  <Q_VSA_PNEG>
59.9504

>  <Q_VSA_POL>
170.648

>  <Q_VSA_POS>
236.296

>  <Q_VSA_PPOS>
110.697

>  <RPC+>
0.12785

>  <RPC->
0.12858

>  <lip_acc>
7

>  <lip_don>
1

>  <lip_druglike>
1

>  <lip_violation>
0

>  <opr_brigid>
22

>  <opr_leadlike>
1

>  <opr_nring>
4

>  <opr_nrot>
7

>  <opr_violation>
0

>  <E>
104.182

>  <E_ang>
9.76587

>  <E_ele>
31.4846

>  <E_nb>
80.6636

>  <E_oop>
0.04002

>  <E_sol>
-19.5277

>  <E_stb>
0.530676

>  <E_str>
6.41904

>  <E_strain>
0.00568785

>  <E_tor>
6.76242

>  <E_vdw>
49.179

>  <E_rele>
0

>  <E_rnb>
1.42109e-014

>  <E_rsol>
1.42109e-014

>  <E_rvdw>
0

>  <Kier1>
23.168

>  <Kier2>
10.7448

>  <Kier3>
5.16797

>  <KierA1>
16.3249

>  <KierA2>
7.47224

>  <KierA3>
3.56058

>  <KierFlex>
4.06611

>  <logS>
-4.40718

>  <MNDO_dipole>
3.67346

>  <MNDO_E>
-119326

>  <MNDO_Eele>
-936430

>  <MNDO_HF>
-47.8323

>  <MNDO_HOMO>
-8.58855

>  <MNDO_IP>
8.58855

>  <MNDO_LUMO>
-0.40949

>  <apol>
62.3242

>  <bpol>
34.5538

>  <mr>
11.3919

>  <dipole>
1.28301

>  <dipoleX>
0.37883

>  <dipoleY>
-1.20252

>  <dipoleZ>
0.237807

>  <pmi>
9568.46

>  <pmiX>
7695.67

>  <pmiY>
1198.37

>  <pmiZ>
674.431

>  <rgyr>
4.85792

>  <a_acc>
4

>  <a_acid>
0

>  <a_base>
0

>  <a_don>
1

>  <a_hyd>
20

>  <vsa_acc>
43.2045

>  <vsa_acid>
0

>  <vsa_base>
0

>  <vsa_don>
5.68258

>  <vsa_hyd>
301.216

>  <vsa_other>
34.3576

>  <vsa_pol>
48.8871

>  <PM3_dipole>
4.40129

>  <PM3_E>
-109302

>  <PM3_Eele>
-930597

>  <PM3_HF>
-72.2374

>  <PM3_HOMO>
-8.66668

>  <PM3_IP>
8.66668

>  <PM3_LUMO>
-0.5162

>  <SlogP>
2.7339

>  <SlogP_VSA0>
10.9999

>  <SlogP_VSA1>
22.4538

>  <SlogP_VSA2>
40.6477

>  <SlogP_VSA3>
94.6846

>  <SlogP_VSA4>
54.0956

>  <SlogP_VSA5>
0

>  <SlogP_VSA6>
0

>  <SlogP_VSA7>
163.077

>  <SlogP_VSA8>
0

>  <SlogP_VSA9>
38.5694

>  <SMR>
11.2724

>  <SMR_VSA0>
71.5866

>  <SMR_VSA1>
17.2485

>  <SMR_VSA2>
16.7855

>  <SMR_VSA3>
11.6146

>  <SMR_VSA4>
4.7171

>  <SMR_VSA5>
158.36

>  <SMR_VSA6>
110.89

>  <SMR_VSA7>
33.326

>  <ASA>
681.782

>  <ASA+>
246.971

>  <ASA->
226.942

>  <ASA_H>
532.139

>  <ASA_P>
149.643

>  <CASA+>
1267.21

>  <CASA->
1164.89

>  <DASA>
20.0283

>  <DCASA>
102.311

>  <FASA+>
0.362243

>  <FASA->
0.332867

>  <FASA_H>
0.780512

>  <FASA_P>
0.219488

>  <FCASA+>
1.85867

>  <FCASA->
1.7086

>  <VSA>
431.191

>  <TPSA>
82.71

>  <density>
0.743732

>  <vdw_area>
403.194

>  <vdw_vol>
545.162

>  <vsurf_A>
0.900815

>  <vsurf_CP>
0.131385

>  <vsurf_CW1>
2.5835

>  <vsurf_CW2>
1.96255

>  <vsurf_CW3>
1.12432

>  <vsurf_CW4>
0.503661

>  <vsurf_CW5>
0.233188

>  <vsurf_CW6>
0.0771521

>  <vsurf_CW7>
0.0105578

>  <vsurf_CW8>
0

>  <vsurf_D1>
955.375

>  <vsurf_D2>
560.875

>  <vsurf_D3>
432.625

>  <vsurf_D4>
376.125

>  <vsurf_D5>
334

>  <vsurf_D6>
258.125

>  <vsurf_D7>
141.25

>  <vsurf_D8>
67.75

>  <vsurf_DD12>
5.31507

>  <vsurf_DD13>
0.5

>  <vsurf_DD23>
5.43139

>  <vsurf_DW12>
4.41588

>  <vsurf_DW13>
0.5

>  <vsurf_DW23>
4.03113

>  <vsurf_EDmin1>
-2.69619

>  <vsurf_EDmin2>
-2.68377

>  <vsurf_EDmin3>
-2.66508

>  <vsurf_EWmin1>
-5.72386

>  <vsurf_EWmin2>
-5.48819

>  <vsurf_EWmin3>
-5.4561

>  <vsurf_G>
1.37328

>  <vsurf_HB1>
280.5

>  <vsurf_HB2>
295.75

>  <vsurf_HB3>
286

>  <vsurf_HB4>
110.75

>  <vsurf_HB5>
39.125

>  <vsurf_HB6>
11.25

>  <vsurf_HB7>
1.875

>  <vsurf_HB8>
0

>  <vsurf_HL1>
0.106906

>  <vsurf_HL2>
0.034563

>  <vsurf_ID1>
0.299137

>  <vsurf_ID2>
0.23634

>  <vsurf_ID3>
0.128016

>  <vsurf_ID4>
0.0980142

>  <vsurf_ID5>
0.153277

>  <vsurf_ID6>
0.556669

>  <vsurf_ID7>
0.610258

>  <vsurf_ID8>
1.20197

>  <vsurf_IW1>
0.309246

>  <vsurf_IW2>
0.293482

>  <vsurf_IW3>
0.125482

>  <vsurf_IW4>
0.459829

>  <vsurf_IW5>
0.793401

>  <vsurf_IW6>
1.4514

>  <vsurf_IW7>
3.03435

>  <vsurf_IW8>
0

>  <vsurf_R>
1.45574

>  <vsurf_S>
620.731

>  <vsurf_V>
903.625

>  <vsurf_W1>
1397.75

>  <vsurf_W2>
772.75

>  <vsurf_W3>
368.125

>  <vsurf_W4>
127.875

>  <vsurf_W5>
46.25

>  <vsurf_W6>
13

>  <vsurf_W7>
1.875

>  <vsurf_W8>
0

>  <vsurf_Wp1>
1117.25

>  <vsurf_Wp2>
477

>  <vsurf_Wp3>
82.125

>  <vsurf_Wp4>
17.125

>  <vsurf_Wp5>
7.125

>  <vsurf_Wp6>
1.75

>  <vsurf_Wp7>
0

>  <vsurf_Wp8>
0

>  <dens>
1.04768

>  <glob>
0.0556919

>  <std_dim1>
4.77043

>  <std_dim2>
1.83367

>  <std_dim3>
1.12578

>  <vol>
387

>  <logP(o/w)>
2.378

$$$$
D1.cdx
  MOE2008           3D

 46 49  0  0  0  0  0  0  0  0999 V2000
   -6.0350  -15.0020    1.2080 C   0  0  0  0  0  0  0  0  0  0  0  0
   -6.7990  -15.2690    0.0800 C   0  0  0  0  0  0  0  0  0  0  0  0
   -7.8440  -14.9740    0.0610 H   0  0  0  0  0  0  0  0  0  0  0  0
   -6.2330  -15.9120   -1.0230 C   0  0  0  0  0  0  0  0  0  0  0  0
   -6.8260  -16.1250   -1.9080 H   0  0  0  0  0  0  0  0  0  0  0  0
   -4.8800  -16.2670   -0.9410 C   0  0  0  0  0  0  0  0  0  0  0  0
   -4.0930  -16.0110    0.1850 C   0  0  0  0  0  0  0  0  0  0  0  0
   -4.6900  -15.3620    1.2860 C   0  0  0  0  0  0  0  0  0  0  0  0
   -4.1240  -15.1390    2.1850 H   0  0  0  0  0  0  0  0  0  0  0  0
   -4.0740  -16.8950   -1.8620 N   0  0  0  0  0  0  0  0  0  0  0  0
   -4.3780  -17.2040   -2.7750 H   0  0  0  0  0  0  0  0  0  0  0  0
   -2.8070  -17.0380   -1.3620 C   0  0  0  0  0  0  0  0  0  0  0  0
   -2.0420  -17.5190   -1.9590 H   0  0  0  0  0  0  0  0  0  0  0  0
   -2.7760  -16.5070   -0.0860 C   0  0  0  0  0  0  0  0  0  0  0  0
   -1.6140  -16.4640    0.7930 C   0  0  0  0  0  0  0  0  0  0  0  0
   -0.2580  -16.9270    0.2870 C   0  0  0  0  0  0  0  0  0  0  0  0
    0.7020  -15.9380    0.0790 N   0  0  0  0  0  0  0  0  0  0  0  0
    2.0400  -16.3230   -0.3690 C   0  0  0  0  0  0  0  0  0  0  0  0
    2.2470  -17.3630   -0.0950 H   0  0  0  0  0  0  0  0  0  0  0  0
    2.0360  -16.2640   -1.4640 H   0  0  0  0  0  0  0  0  0  0  0  0
    3.1210  -15.4020    0.2050 C   0  0  0  0  0  0  0  0  0  0  0  0
    4.1020  -15.6870   -0.1880 H   0  0  0  0  0  0  0  0  0  0  0  0
    3.1450  -15.5040    1.2960 H   0  0  0  0  0  0  0  0  0  0  0  0
    2.8640  -13.9820   -0.0850 N   0  0  0  0  0  0  0  0  0  0  0  0
    1.4830  -13.6140   -0.4070 C   0  0  0  0  0  0  0  0  0  0  0  0
    1.3040  -12.5630   -0.1540 H   0  0  0  0  0  0  0  0  0  0  0  0
    1.3800  -13.7110   -1.4950 H   0  0  0  0  0  0  0  0  0  0  0  0
    0.4570  -14.5060    0.2970 C   0  0  0  0  0  0  0  0  0  0  0  0
   -0.5530  -14.2500   -0.0380 H   0  0  0  0  0  0  0  0  0  0  0  0
    0.5040  -14.3420    1.3800 H   0  0  0  0  0  0  0  0  0  0  0  0
    3.8380  -12.9850   -0.1030 C   0  0  0  0  0  0  0  0  0  0  0  0
    5.2060  -13.3190    0.3520 C   0  0  0  0  0  0  0  0  0  0  0  0
    5.4350  -13.7420    1.6650 C   0  0  0  0  0  0  0  0  0  0  0  0
    4.6130  -13.8380    2.3700 H   0  0  0  0  0  0  0  0  0  0  0  0
    6.7360  -14.0300    2.0770 C   0  0  0  0  0  0  0  0  0  0  0  0
    6.9230  -14.3640    3.0950 H   0  0  0  0  0  0  0  0  0  0  0  0
    7.8010  -13.8790    1.1870 C   0  0  0  0  0  0  0  0  0  0  0  0
    8.8150  -14.1000    1.5120 H   0  0  0  0  0  0  0  0  0  0  0  0
    7.5710  -13.4320   -0.1160 C   0  0  0  0  0  0  0  0  0  0  0  0
    8.4050  -13.3030   -0.8010 H   0  0  0  0  0  0  0  0  0  0  0  0
    6.2720  -13.1440   -0.5350 C   0  0  0  0  0  0  0  0  0  0  0  0
    6.0940  -12.7850   -1.5460 H   0  0  0  0  0  0  0  0  0  0  0  0
   -1.6600  -16.0380    1.9450 O   0  0  0  0  0  0  0  0  0  0  0  0
   -0.0990  -18.1270    0.0930 O   0  0  0  0  0  0  0  0  0  0  0  0
    3.6380  -11.8350   -0.4860 O   0  0  0  0  0  0  0  0  0  0  0  0
   -6.6040  -14.3810    2.2510 F   0  0  0  0  0  0  0  0  0  0  0  0
  1  2  1  0  0  0  0
  1  8  2  0  0  0  0
  1 46  1  0  0  0  0
  2  3  1  0  0  0  0
  2  4  2  0  0  0  0
  4  5  1  0  0  0  0
  4  6  1  0  0  0  0
  6  7  2  0  0  0  0
  6 10  1  0  0  0  0
  7  8  1  0  0  0  0
  7 14  1  0  0  0  0
  8  9  1  0  0  0  0
 10 11  1  0  0  0  0
 10 12  1  0  0  0  0
 12 13  1  0  0  0  0
 12 14  2  0  0  0  0
 14 15  1  0  0  0  0
 15 16  1  0  0  0  0
 15 43  2  0  0  0  0
 16 17  1  0  0  0  0
 16 44  2  0  0  0  0
 17 18  1  0  0  0  0
 17 28  1  0  0  0  0
 18 19  1  0  0  0  0
 18 20  1  0  0  0  0
 18 21  1  0  0  0  0
 21 22  1  0  0  0  0
 21 23  1  0  0  0  0
 21 24  1  0  0  0  0
 24 25  1  0  0  0  0
 24 31  1  0  0  0  0
 25 26  1  0  0  0  0
 25 27  1  0  0  0  0
 25 28  1  0  0  0  0
 28 29  1  0  0  0  0
 28 30  1  0  0  0  0
 31 32  1  0  0  0  0
 31 45  2  0  0  0  0
 32 33  1  0  0  0  0
 32 41  2  0  0  0  0
 33 34  1  0  0  0  0
 33 35  2  0  0  0  0
 35 36  1  0  0  0  0
 35 37  1  0  0  0  0
 37 38  1  0  0  0  0
 37 39  2  0  0  0  0
 39 40  1  0  0  0  0
 39 41  1  0  0  0  0
 41 42  1  0  0  0  0
M  END
>  <Activity>
6.0766

>  <AM1_dipole>
5.54756

>  <AM1_E>
-115336

>  <AM1_Eele>
-823521

>  <AM1_HF>
-41.826

>  <AM1_HOMO>
-9.08039

>  <AM1_IP>
9.08039

>  <AM1_LUMO>
-0.67231

>  <diameter>
15

>  <petitjean>
0.466667

>  <petitjeanSC>
0.875

>  <radius>
8

>  <VDistEq>
3.68367

>  <VDistMa>
9.29141

>  <weinerPath>
2231

>  <weinerPol>
46

>  <BCUT_PEOE_0>
-2.71189

>  <BCUT_PEOE_1>
-0.646081

>  <BCUT_PEOE_2>
0.657721

>  <BCUT_PEOE_3>
2.65023

>  <BCUT_SLOGP_0>
-2.86001

>  <BCUT_SLOGP_1>
-0.53808

>  <BCUT_SLOGP_2>
0.760655

>  <BCUT_SLOGP_3>
2.50338

>  <BCUT_SMR_0>
-2.43203

>  <BCUT_SMR_1>
-0.43319

>  <BCUT_SMR_2>
0.826251

>  <BCUT_SMR_3>
2.92024

>  <GCUT_PEOE_0>
-0.860485

>  <GCUT_PEOE_1>
-0.403801

>  <GCUT_PEOE_2>
0.080099

>  <GCUT_PEOE_3>
2.65042

>  <GCUT_SLOGP_0>
-0.976487

>  <GCUT_SLOGP_1>
-0.336325

>  <GCUT_SLOGP_2>
0.164454

>  <GCUT_SLOGP_3>
2.62916

>  <GCUT_SMR_0>
-0.508912

>  <GCUT_SMR_1>
-0.216057

>  <GCUT_SMR_2>
0.193051

>  <GCUT_SMR_3>
2.92012

>  <a_aro>
15

>  <a_count>
46

>  <a_IC>
77.2768

>  <a_ICM>
1.67993

>  <a_nH>
18

>  <b_1rotN>
5

>  <b_1rotR>
0.16129

>  <b_ar>
16

>  <b_count>
49

>  <b_double>
3

>  <b_rotN>
5

>  <b_rotR>
0.16129

>  <b_single>
30

>  <b_triple>
0

>  <chi0v>
15.0217

>  <chi0v_C>
12.0246

>  <chi1v>
8.98955

>  <chi1v_C>
5.93739

>  <chiral>
0

>  <chiral_u>
0

>  <nmol>
1

>  <reactive>
0

>  <rings>
4

>  <Weight>
379.391

>  <a_heavy>
28

>  <a_nB>
0

>  <a_nBr>
0

>  <a_nC>
21

>  <a_nCl>
0

>  <a_nF>
1

>  <a_nI>
0

>  <a_nN>
3

>  <a_nO>
3

>  <a_nP>
0

>  <a_nS>
0

>  <b_heavy>
31

>  <chi0>
19.673

>  <chi0_C>
13.8112

>  <chi1>
13.5417

>  <chi1_C>
8.0244

>  <FCharge>
0

>  <VAdjEq>
0.398935

>  <VAdjMa>
5.9542

>  <zagreb>
150

>  <balabanJ>
1.28116

>  <PEOE_PC+>
2.40406

>  <PEOE_PC->
-2.40406

>  <PEOE_RPC+>
0.12275

>  <PEOE_RPC->
0.149723

>  <PEOE_VSA+0>
80.6318

>  <PEOE_VSA+1>
74.7201

>  <PEOE_VSA+2>
9.02085

>  <PEOE_VSA+3>
8.61901

>  <PEOE_VSA+4>
0

>  <PEOE_VSA+5>
34.3576

>  <PEOE_VSA+6>
0

>  <PEOE_VSA-0>
61.2745

>  <PEOE_VSA-1>
36.7647

>  <PEOE_VSA-2>
0

>  <PEOE_VSA-3>
0

>  <PEOE_VSA-4>
11.9086

>  <PEOE_VSA-5>
40.7008

>  <PEOE_VSA-6>
0.136891

>  <PEOE_VSA_FHYD>
0.756785

>  <PEOE_VSA_FNEG>
0.42103

>  <PEOE_VSA_FPNEG>
0.14728

>  <PEOE_VSA_FPOL>
0.243215

>  <PEOE_VSA_FPOS>
0.57897

>  <PEOE_VSA_FPPOS>
0.0959347

>  <PEOE_VSA_HYD>
271.031

>  <PEOE_VSA_NEG>
150.786

>  <PEOE_VSA_PNEG>
52.7463

>  <PEOE_VSA_POL>
87.1039

>  <PEOE_VSA_POS>
207.349

>  <PEOE_VSA_PPOS>
34.3576

>  <PC+>
4.959

>  <PC->
-4.96

>  <Q_PC+>
4.959

>  <Q_PC->
-4.96

>  <Q_RPC+>
0.132285

>  <Q_RPC->
0.133065

>  <Q_VSA_FHYD>
0.572249

>  <Q_VSA_FNEG>
0.49228

>  <Q_VSA_FPNEG>
0.160405

>  <Q_VSA_FPOL>
0.427751

>  <Q_VSA_FPOS>
0.50772

>  <Q_VSA_FPPOS>
0.267346

>  <Q_VSA_HYD>
204.942

>  <Q_VSA_NEG>
176.303

>  <Q_VSA_PNEG>
57.4467

>  <Q_VSA_POL>
153.193

>  <Q_VSA_POS>
181.832

>  <Q_VSA_PPOS>
95.7459

>  <RPC+>
0.132285

>  <RPC->
0.133065

>  <lip_acc>
6

>  <lip_don>
1

>  <lip_druglike>
1

>  <lip_violation>
0

>  <opr_brigid>
22

>  <opr_leadlike>
1

>  <opr_nring>
4

>  <opr_nrot>
5

>  <opr_violation>
0

>  <E>
90.266

>  <E_ang>
6.56183

>  <E_ele>
28.0934

>  <E_nb>
73.8164

>  <E_oop>
0.0571409

>  <E_sol>
-18.6785

>  <E_stb>
0.376429

>  <E_str>
5.63475

>  <E_strain>
0.00425274

>  <E_tor>
3.81948

>  <E_vdw>
45.7229

>  <E_rele>
0

>  <E_rnb>
0

>  <E_rsol>
0

>  <E_rvdw>
0

>  <Kier1>
21.2404

>  <Kier2>
9.42769

>  <Kier3>
4.69444

>  <KierA1>
14.4569

>  <KierA2>
6.31723

>  <KierA3>
3.11071

>  <KierFlex>
3.26171

>  <logS>
-4.32457

>  <MNDO_dipole>
4.79172

>  <MNDO_E>
-115419

>  <MNDO_Eele>
-817314

>  <MNDO_HF>
-61.7287

>  <MNDO_HOMO>
-9.06888

>  <MNDO_IP>
9.06888

>  <MNDO_LUMO>
-0.69413

>  <apol>
55.2253

>  <bpol>
28.3747

>  <mr>
10.3492

>  <dipole>
1.1745

>  <dipoleX>
0.328044

>  <dipoleY>
-0.564541

>  <dipoleZ>
-0.97628

>  <pmi>
9134.7

>  <pmiX>
7801.69

>  <pmiY>
895.082

>  <pmiZ>
437.924

>  <rgyr>
4.90686

>  <a_acc>
3

>  <a_acid>
0

>  <a_base>
0

>  <a_don>
1

>  <a_hyd>
19

>  <vsa_acc>
40.7008

>  <vsa_acid>
0

>  <vsa_base>
0

>  <vsa_don>
5.68258

>  <vsa_hyd>
262.22

>  <vsa_other>
34.3576

>  <vsa_pol>
46.3833

>  <PM3_dipole>
5.01235

>  <PM3_E>
-105441

>  <PM3_Eele>
-806393

>  <PM3_HF>
-75.2638

>  <PM3_HOMO>
-9.00473

>  <PM3_IP>
9.00473

>  <PM3_LUMO>
-0.72344

>  <SlogP>
2.4743

>  <SlogP_VSA0>
0

>  <SlogP_VSA1>
22.4538

>  <SlogP_VSA2>
49.7688

>  <SlogP_VSA3>
73.7583

>  <SlogP_VSA4>
54.0956

>  <SlogP_VSA5>
0

>  <SlogP_VSA6>
0

>  <SlogP_VSA7>
163.077

>  <SlogP_VSA8>
0

>  <SlogP_VSA9>
14.9601

>  <SMR>
10.1513

>  <SMR_VSA0>
71.5866

>  <SMR_VSA1>
21.2087

>  <SMR_VSA2>
25.9065

>  <SMR_VSA3>
6.37115

>  <SMR_VSA4>
4.7171

>  <SMR_VSA5>
158.36

>  <SMR_VSA6>
89.9635

>  <SMR_VSA7>
0

>  <ASA>
628.939

>  <ASA+>
248.372

>  <ASA->
271.955

>  <ASA_H>
473.747

>  <ASA_P>
155.192

>  <CASA+>
1231.68

>  <CASA->
1348.9

>  <DASA>
23.5833

>  <DCASA>
117.221

>  <FASA+>
0.394906

>  <FASA->
0.432403

>  <FASA_H>
0.753248

>  <FASA_P>
0.246752

>  <FCASA+>
1.95834

>  <FCASA->
2.14472

>  <VSA>
381.773

>  <TPSA>
73.48

>  <density>
0.776193

>  <vdw_area>
358.135

>  <vdw_vol>
488.784

>  <vsurf_A>
1.26692

>  <vsurf_CP>
0.133239

>  <vsurf_CW1>
2.69982

>  <vsurf_CW2>
2.24689

>  <vsurf_CW3>
1.48997

>  <vsurf_CW4>
0.627699

>  <vsurf_CW5>
0.210652

>  <vsurf_CW6>
0.06242

>  <vsurf_CW7>
0.00504711

>  <vsurf_CW8>
0

>  <vsurf_D1>
836.5

>  <vsurf_D2>
490.75

>  <vsurf_D3>
363.875

>  <vsurf_D4>
304.875

>  <vsurf_D5>
260.625

>  <vsurf_D6>
210.875

>  <vsurf_D7>
125.375

>  <vsurf_D8>
71.25

>  <vsurf_DD12>
1.22474

>  <vsurf_DD13>
0.866025

>  <vsurf_DD23>
0.5

>  <vsurf_DW12>
0.707107

>  <vsurf_DW13>
6.10328

>  <vsurf_DW23>
5.67891

>  <vsurf_EDmin1>
-2.68993

>  <vsurf_EDmin2>
-2.68467

>  <vsurf_EDmin3>
-2.6526

>  <vsurf_EWmin1>
-5.5721

>  <vsurf_EWmin2>
-5.43827

>  <vsurf_EWmin3>
-5.31798

>  <vsurf_G>
1.35146

>  <vsurf_HB1>
342.625

>  <vsurf_HB2>
420.125

>  <vsurf_HB3>
356.875

>  <vsurf_HB4>
118.625

>  <vsurf_HB5>
31.375

>  <vsurf_HB6>
8.375

>  <vsurf_HB7>
1

>  <vsurf_HB8>
0

>  <vsurf_HL1>
0.105462

>  <vsurf_HL2>
0.0323903

>  <vsurf_ID1>
1.04535

>  <vsurf_ID2>
1.00075

>  <vsurf_ID3>
1.13407

>  <vsurf_ID4>
1.43379

>  <vsurf_ID5>
1.75193

>  <vsurf_ID6>
1.77112

>  <vsurf_ID7>
1.04561

>  <vsurf_ID8>
0.997783

>  <vsurf_IW1>
0.121329

>  <vsurf_IW2>
0.910483

>  <vsurf_IW3>
1.17895

>  <vsurf_IW4>
0.953101

>  <vsurf_IW5>
0.790953

>  <vsurf_IW6>
1.48133

>  <vsurf_IW7>
2.45575

>  <vsurf_IW8>
0

>  <vsurf_R>
1.42966

>  <vsurf_S>
570.59

>  <vsurf_V>
815.75

>  <vsurf_W1>
1400.38

>  <vsurf_W2>
865.25

>  <vsurf_W3>
436.625

>  <vsurf_W4>
135.375

>  <vsurf_W5>
38.375

>  <vsurf_W6>
9.875

>  <vsurf_W7>
1

>  <vsurf_W8>
0

>  <vsurf_Wp1>
1057.75

>  <vsurf_Wp2>
445.125

>  <vsurf_Wp3>
79.75

>  <vsurf_Wp4>
16.75

>  <vsurf_Wp5>
7

>  <vsurf_Wp6>
1.5

>  <vsurf_Wp7>
0

>  <vsurf_Wp8>
0

>  <dens>
1.09138

>  <glob>
0.0579316

>  <std_dim1>
4.75498

>  <std_dim2>
1.34493

>  <std_dim3>
1.14448

>  <vol>
347.625

>  <logP(o/w)>
2.273

$$$$
D1.cdx
  MOE2008           3D

 46 49  0  0  0  0  0  0  0  0999 V2000
   -5.9060  -18.8850   -1.4070 C   0  0  0  0  0  0  0  0  0  0  0  0
   -5.9680  -19.9460   -2.3060 C   0  0  0  0  0  0  0  0  0  0  0  0
   -6.7860  -20.0110   -3.0200 H   0  0  0  0  0  0  0  0  0  0  0  0
   -4.9870  -20.9420   -2.3050 C   0  0  0  0  0  0  0  0  0  0  0  0
   -5.0360  -21.7710   -3.0040 H   0  0  0  0  0  0  0  0  0  0  0  0
   -3.9470  -20.8260   -1.3740 C   0  0  0  0  0  0  0  0  0  0  0  0
   -3.8610  -19.7750   -0.4590 C   0  0  0  0  0  0  0  0  0  0  0  0
   -4.8660  -18.7830   -0.4780 C   0  0  0  0  0  0  0  0  0  0  0  0
   -4.8290  -17.9520    0.2200 H   0  0  0  0  0  0  0  0  0  0  0  0
   -2.8640  -21.6440   -1.1540 N   0  0  0  0  0  0  0  0  0  0  0  0
   -2.6730  -22.4930   -1.6680 H   0  0  0  0  0  0  0  0  0  0  0  0
   -2.0890  -21.1410   -0.1420 C   0  0  0  0  0  0  0  0  0  0  0  0
   -1.1910  -21.6640    0.1630 H   0  0  0  0  0  0  0  0  0  0  0  0
   -2.6800  -19.9820    0.3270 C   0  0  0  0  0  0  0  0  0  0  0  0
   -2.1770  -19.1460    1.4100 C   0  0  0  0  0  0  0  0  0  0  0  0
   -0.8250  -19.4430    2.0310 C   0  0  0  0  0  0  0  0  0  0  0  0
    0.2560  -18.6950    1.5670 N   0  0  0  0  0  0  0  0  0  0  0  0
    1.5920  -18.9730    2.0950 C   0  0  0  0  0  0  0  0  0  0  0  0
    1.7270  -18.3230    2.9680 H   0  0  0  0  0  0  0  0  0  0  0  0
    1.6520  -20.0090    2.4440 H   0  0  0  0  0  0  0  0  0  0  0  0
    2.6900  -18.7000    1.0620 C   0  0  0  0  0  0  0  0  0  0  0  0
    2.5740  -19.3880    0.2160 H   0  0  0  0  0  0  0  0  0  0  0  0
    3.6740  -18.8710    1.5100 H   0  0  0  0  0  0  0  0  0  0  0  0
    2.6210  -17.3360    0.5150 N   0  0  0  0  0  0  0  0  0  0  0  0
    1.3280  -16.6540    0.6030 C   0  0  0  0  0  0  0  0  0  0  0  0
    1.3310  -16.1020    1.5510 H   0  0  0  0  0  0  0  0  0  0  0  0
    1.2350  -15.9180   -0.2040 H   0  0  0  0  0  0  0  0  0  0  0  0
    0.1450  -17.6250    0.5660 C   0  0  0  0  0  0  0  0  0  0  0  0
    0.0940  -18.1180   -0.4120 H   0  0  0  0  0  0  0  0  0  0  0  0
   -0.7890  -17.0730    0.7090 H   0  0  0  0  0  0  0  0  0  0  0  0
    3.6960  -16.6460   -0.0450 C   0  0  0  0  0  0  0  0  0  0  0  0
    4.9700  -17.3690   -0.2630 C   0  0  0  0  0  0  0  0  0  0  0  0
    5.0250  -18.4720   -1.1200 C   0  0  0  0  0  0  0  0  0  0  0  0
    4.1340  -18.8200   -1.6360 H   0  0  0  0  0  0  0  0  0  0  0  0
    6.2420  -19.1220   -1.3260 C   0  0  0  0  0  0  0  0  0  0  0  0
    6.2960  -19.9830   -1.9880 H   0  0  0  0  0  0  0  0  0  0  0  0
    7.3970  -18.6610   -0.6900 C   0  0  0  0  0  0  0  0  0  0  0  0
    8.3450  -19.1670   -0.8550 H   0  0  0  0  0  0  0  0  0  0  0  0
    7.3420  -17.5440    0.1460 C   0  0  0  0  0  0  0  0  0  0  0  0
    8.2460  -17.1810    0.6280 H   0  0  0  0  0  0  0  0  0  0  0  0
    6.1280  -16.8900    0.3570 C   0  0  0  0  0  0  0  0  0  0  0  0
    6.0880  -16.0130    0.9990 H   0  0  0  0  0  0  0  0  0  0  0  0
   -2.7930  -18.1800    1.8530 O   0  0  0  0  0  0  0  0  0  0  0  0
   -0.7690  -20.3270    2.8780 O   0  0  0  0  0  0  0  0  0  0  0  0
    3.6600  -15.4620   -0.3650 O   0  0  0  0  0  0  0  0  0  0  0  0
   -7.1290  -17.6720   -1.4390 Cl  0  0  0  0  0  0  0  0  0  0  0  0
  1  2  1  0  0  0  0
  1  8  2  0  0  0  0
  1 46  1  0  0  0  0
  2  3  1  0  0  0  0
  2  4  2  0  0  0  0
  4  5  1  0  0  0  0
  4  6  1  0  0  0  0
  6  7  2  0  0  0  0
  6 10  1  0  0  0  0
  7  8  1  0  0  0  0
  7 14  1  0  0  0  0
  8  9  1  0  0  0  0
 10 11  1  0  0  0  0
 10 12  1  0  0  0  0
 12 13  1  0  0  0  0
 12 14  2  0  0  0  0
 14 15  1  0  0  0  0
 15 16  1  0  0  0  0
 15 43  2  0  0  0  0
 16 17  1  0  0  0  0
 16 44  2  0  0  0  0
 17 18  1  0  0  0  0
 17 28  1  0  0  0  0
 18 19  1  0  0  0  0
 18 20  1  0  0  0  0
 18 21  1  0  0  0  0
 21 22  1  0  0  0  0
 21 23  1  0  0  0  0
 21 24  1  0  0  0  0
 24 25  1  0  0  0  0
 24 31  1  0  0  0  0
 25 26  1  0  0  0  0
 25 27  1  0  0  0  0
 25 28  1  0  0  0  0
 28 29  1  0  0  0  0
 28 30  1  0  0  0  0
 31 32  1  0  0  0  0
 31 45  2  0  0  0  0
 32 33  1  0  0  0  0
 32 41  2  0  0  0  0
 33 34  1  0  0  0  0
 33 35  2  0  0  0  0
 35 36  1  0  0  0  0
 35 37  1  0  0  0  0
 37 38  1  0  0  0  0
 37 39  2  0  0  0  0
 39 40  1  0  0  0  0
 39 41  1  0  0  0  0
 41 42  1  0  0  0  0
M  END
>  <Activity>
6.4034

>  <AM1_dipole>
6.60683

>  <AM1_E>
-112770

>  <AM1_Eele>
-821982

>  <AM1_HF>
-2.44302

>  <AM1_HOMO>
-9.0614

>  <AM1_IP>
9.0614

>  <AM1_LUMO>
-0.65795

>  <diameter>
15

>  <petitjean>
0.466667

>  <petitjeanSC>
0.875

>  <radius>
8

>  <VDistEq>
3.68367

>  <VDistMa>
9.29141

>  <weinerPath>
2231

>  <weinerPol>
46

>  <BCUT_PEOE_0>
-2.71189

>  <BCUT_PEOE_1>
-0.641791

>  <BCUT_PEOE_2>
0.656525

>  <BCUT_PEOE_3>
2.65023

>  <BCUT_SLOGP_0>
-2.86001

>  <BCUT_SLOGP_1>
-0.53808

>  <BCUT_SLOGP_2>
0.805915

>  <BCUT_SLOGP_3>
2.50352

>  <BCUT_SMR_0>
-2.43203

>  <BCUT_SMR_1>
-0.424035

>  <BCUT_SMR_2>
0.854311

>  <BCUT_SMR_3>
2.92024

>  <GCUT_PEOE_0>
-0.860534

>  <GCUT_PEOE_1>
-0.403743

>  <GCUT_PEOE_2>
0.080099

>  <GCUT_PEOE_3>
2.64921

>  <GCUT_SLOGP_0>
-0.976483

>  <GCUT_SLOGP_1>
-0.323054

>  <GCUT_SLOGP_2>
0.164454

>  <GCUT_SLOGP_3>
2.63793

>  <GCUT_SMR_0>
-0.50891

>  <GCUT_SMR_1>
-0.216057

>  <GCUT_SMR_2>
0.231076

>  <GCUT_SMR_3>
2.9234

>  <a_aro>
15

>  <a_count>
46

>  <a_IC>
77.2768

>  <a_ICM>
1.67993

>  <a_nH>
18

>  <b_1rotN>
5

>  <b_1rotR>
0.16129

>  <b_ar>
16

>  <b_count>
49

>  <b_double>
3

>  <b_rotN>
5

>  <b_rotR>
0.16129

>  <b_single>
30

>  <b_triple>
0

>  <chi0v>
15.7776

>  <chi0v_C>
12.0246

>  <chi1v>
9.36751

>  <chi1v_C>
5.93739

>  <chiral>
0

>  <chiral_u>
0

>  <nmol>
1

>  <reactive>
0

>  <rings>
4

>  <Weight>
395.846

>  <a_heavy>
28

>  <a_nB>
0

>  <a_nBr>
0

>  <a_nC>
21

>  <a_nCl>
1

>  <a_nF>
0

>  <a_nI>
0

>  <a_nN>
3

>  <a_nO>
3

>  <a_nP>
0

>  <a_nS>
0

>  <b_heavy>
31

>  <chi0>
19.673

>  <chi0_C>
13.8112

>  <chi1>
13.5417

>  <chi1_C>
8.0244

>  <FCharge>
0

>  <VAdjEq>
0.398935

>  <VAdjMa>
5.9542

>  <zagreb>
150

>  <balabanJ>
1.28116

>  <PEOE_PC+>
2.31732

>  <PEOE_PC->
-2.31732

>  <PEOE_RPC+>
0.127345

>  <PEOE_RPC->
0.155328

>  <PEOE_VSA+0>
85.1516

>  <PEOE_VSA+1>
74.7201

>  <PEOE_VSA+2>
0

>  <PEOE_VSA+3>
8.61901

>  <PEOE_VSA+4>
0

>  <PEOE_VSA+5>
34.3576

>  <PEOE_VSA+6>
0

>  <PEOE_VSA-0>
61.2745

>  <PEOE_VSA-1>
66.3467

>  <PEOE_VSA-2>
0

>  <PEOE_VSA-3>
0

>  <PEOE_VSA-4>
0

>  <PEOE_VSA-5>
40.7008

>  <PEOE_VSA-6>
0.136891

>  <PEOE_VSA_FHYD>
0.797485

>  <PEOE_VSA_FNEG>
0.453691

>  <PEOE_VSA_FPNEG>
0.109983

>  <PEOE_VSA_FPOL>
0.202515

>  <PEOE_VSA_FPOS>
0.546309

>  <PEOE_VSA_FPPOS>
0.0925314

>  <PEOE_VSA_HYD>
296.112

>  <PEOE_VSA_NEG>
168.459

>  <PEOE_VSA_PNEG>
40.8377

>  <PEOE_VSA_POL>
75.1952

>  <PEOE_VSA_POS>
202.848

>  <PEOE_VSA_PPOS>
34.3576

>  <PC+>
4.946

>  <PC->
-4.947

>  <Q_PC+>
4.946

>  <Q_PC->
-4.947

>  <Q_RPC+>
0.132632

>  <Q_RPC->
0.133414

>  <Q_VSA_FHYD>
0.587424

>  <Q_VSA_FNEG>
0.522414

>  <Q_VSA_FPNEG>
0.154715

>  <Q_VSA_FPOL>
0.412576

>  <Q_VSA_FPOS>
0.477586

>  <Q_VSA_FPPOS>
0.257862

>  <Q_VSA_HYD>
218.115

>  <Q_VSA_NEG>
193.976

>  <Q_VSA_PNEG>
57.4467

>  <Q_VSA_POL>
153.193

>  <Q_VSA_POS>
177.331

>  <Q_VSA_PPOS>
95.7459

>  <RPC+>
0.132632

>  <RPC->
0.133414

>  <lip_acc>
6

>  <lip_don>
1

>  <lip_druglike>
1

>  <lip_violation>
0

>  <opr_brigid>
22

>  <opr_leadlike>
1

>  <opr_nring>
4

>  <opr_nrot>
5

>  <opr_violation>
0

>  <E>
91.7333

>  <E_ang>
6.72868

>  <E_ele>
28.9346

>  <E_nb>
74.7882

>  <E_oop>
0.0519386

>  <E_sol>
-20.9531

>  <E_stb>
0.336027

>  <E_str>
5.75278

>  <E_strain>
0.00481254

>  <E_tor>
4.07562

>  <E_vdw>
45.8537

>  <E_rele>
0

>  <E_rnb>
0

>  <E_rsol>
0

>  <E_rvdw>
0

>  <Kier1>
21.2404

>  <Kier2>
9.42769

>  <Kier3>
4.69444

>  <KierA1>
15.4057

>  <KierA2>
6.75023

>  <KierA3>
3.33044

>  <KierFlex>
3.71401

>  <logS>
-4.76388

>  <MNDO_dipole>
7.82154

>  <MNDO_E>
-112541

>  <MNDO_Eele>
-815349

>  <MNDO_HF>
-23.0658

>  <MNDO_HOMO>
-9.12319

>  <MNDO_IP>
9.12319

>  <MNDO_LUMO>
-0.72226

>  <apol>
56.8483

>  <bpol>
27.5917

>  <mr>
10.7803

>  <dipole>
1.93549

>  <dipoleX>
0.966361

>  <dipoleY>
-1.48328

>  <dipoleZ>
-0.78239

>  <pmi>
9474.49

>  <pmiX>
7822.37

>  <pmiY>
908.817

>  <pmiZ>
743.305

>  <rgyr>
4.89232

>  <a_acc>
3

>  <a_acid>
0

>  <a_base>
0

>  <a_don>
1

>  <a_hyd>
19

>  <vsa_acc>
40.7008

>  <vsa_acid>
0

>  <vsa_base>
0

>  <vsa_don>
5.68258

>  <vsa_hyd>
275.392

>  <vsa_other>
34.3576

>  <vsa_pol>
46.3833

>  <PM3_dipole>
6.65902

>  <PM3_E>
-102593

>  <PM3_Eele>
-804866

>  <PM3_HF>
-37.8197

>  <PM3_HOMO>
-8.87976

>  <PM3_IP>
8.87976

>  <PM3_LUMO>
-0.68541

>  <SlogP>
2.9886

>  <SlogP_VSA0>
0

>  <SlogP_VSA1>
22.4538

>  <SlogP_VSA2>
40.6477

>  <SlogP_VSA3>
73.7583

>  <SlogP_VSA4>
54.0956

>  <SlogP_VSA5>
0

>  <SlogP_VSA6>
3.50061

>  <SlogP_VSA7>
163.077

>  <SlogP_VSA8>
0

>  <SlogP_VSA9>
39.1486

>  <SMR>
10.6565

>  <SMR_VSA0>
71.5866

>  <SMR_VSA1>
6.24863

>  <SMR_VSA2>
16.7855

>  <SMR_VSA3>
9.87176

>  <SMR_VSA4>
4.7171

>  <SMR_VSA5>
158.36

>  <SMR_VSA6>
89.9635

>  <SMR_VSA7>
39.1486

>  <ASA>
647.849

>  <ASA+>
238.124

>  <ASA->
302.494

>  <ASA_H>
491.286

>  <ASA_P>
156.563

>  <CASA+>
1177.76

>  <CASA->
1496.44

>  <DASA>
64.3695

>  <DCASA>
318.674

>  <FASA+>
0.367561

>  <FASA->
0.46692

>  <FASA_H>
0.758334

>  <FASA_P>
0.241666

>  <FCASA+>
1.81796

>  <FCASA->
2.30985

>  <VSA>
395.238

>  <TPSA>
73.48

>  <density>
0.78917

>  <vdw_area>
371.307

>  <vdw_vol>
501.598

>  <vsurf_A>
3.00427

>  <vsurf_CP>
0.155486

>  <vsurf_CW1>
2.6596

>  <vsurf_CW2>
2.08078

>  <vsurf_CW3>
1.25391

>  <vsurf_CW4>
0.522512

>  <vsurf_CW5>
0.207715

>  <vsurf_CW6>
0.0636504

>  <vsurf_CW7>
0.00338147

>  <vsurf_CW8>
0

>  <vsurf_D1>
967.75

>  <vsurf_D2>
569.875

>  <vsurf_D3>
424.5

>  <vsurf_D4>
362

>  <vsurf_D5>
313

>  <vsurf_D6>
256.125

>  <vsurf_D7>
148.25

>  <vsurf_D8>
82.875

>  <vsurf_DD12>
0.5

>  <vsurf_DD13>
3

>  <vsurf_DD23>
3.3541

>  <vsurf_DW12>
0.5

>  <vsurf_DW13>
0.866025

>  <vsurf_DW23>
0.707107

>  <vsurf_EDmin1>
-2.7633

>  <vsurf_EDmin2>
-2.72583

>  <vsurf_EDmin3>
-2.65873

>  <vsurf_EWmin1>
-5.31971

>  <vsurf_EWmin2>
-5.23006

>  <vsurf_EWmin3>
-5.15937

>  <vsurf_G>
1.35801

>  <vsurf_HB1>
320.75

>  <vsurf_HB2>
338.5

>  <vsurf_HB3>
291.5

>  <vsurf_HB4>
102.75

>  <vsurf_HB5>
31

>  <vsurf_HB6>
8.125

>  <vsurf_HB7>
0.625

>  <vsurf_HB8>
0

>  <vsurf_HL1>
0.0886337

>  <vsurf_HL2>
0.0269337

>  <vsurf_ID1>
0.846175

>  <vsurf_ID2>
0.879482

>  <vsurf_ID3>
0.923429

>  <vsurf_ID4>
1.02675

>  <vsurf_ID5>
1.127

>  <vsurf_ID6>
1.16569

>  <vsurf_ID7>
1.11439

>  <vsurf_ID8>
0.870706

>  <vsurf_IW1>
0.163957

>  <vsurf_IW2>
0.568739

>  <vsurf_IW3>
1.18864

>  <vsurf_IW4>
1.85281

>  <vsurf_IW5>
2.13888

>  <vsurf_IW6>
2.54817

>  <vsurf_IW7>
4.15167

>  <vsurf_IW8>
0

>  <vsurf_R>
1.44311

>  <vsurf_S>
589.874

>  <vsurf_V>
851.25

>  <vsurf_W1>
1425.38

>  <vsurf_W2>
804.375

>  <vsurf_W3>
378.5

>  <vsurf_W4>
119.125

>  <vsurf_W5>
37.625

>  <vsurf_W6>
9.75

>  <vsurf_W7>
0.625

>  <vsurf_W8>
0

>  <vsurf_Wp1>
1104.63

>  <vsurf_Wp2>
465.875

>  <vsurf_Wp3>
87

>  <vsurf_Wp4>
16.375

>  <vsurf_Wp5>
6.625

>  <vsurf_Wp6>
1.625

>  <vsurf_Wp7>
0

>  <vsurf_Wp8>
0

>  <dens>
1.10302

>  <glob>
0.0805887

>  <std_dim1>
4.42564

>  <std_dim2>
1.59594

>  <std_dim3>
1.25636

>  <vol>
358.875

>  <logP(o/w)>
2.712

$$$$
D2.cdx
  MOE2008           3D

 46 49  0  0  0  0  0  0  0  0999 V2000
   -5.9230   17.6940   -0.1340 C   0  0  0  0  0  0  0  0  0  0  0  0
   -6.4150   16.8770   -1.1490 C   0  0  0  0  0  0  0  0  0  0  0  0
   -7.4470   16.9720   -1.4810 H   0  0  0  0  0  0  0  0  0  0  0  0
   -5.5950   15.9230   -1.7580 C   0  0  0  0  0  0  0  0  0  0  0  0
   -5.9780   15.2850   -2.5480 H   0  0  0  0  0  0  0  0  0  0  0  0
   -4.2710   15.8250   -1.3110 C   0  0  0  0  0  0  0  0  0  0  0  0
   -3.7520   16.6290   -0.2940 C   0  0  0  0  0  0  0  0  0  0  0  0
   -4.6000   17.5850    0.3070 C   0  0  0  0  0  0  0  0  0  0  0  0
   -4.2240   18.2250    1.1000 H   0  0  0  0  0  0  0  0  0  0  0  0
   -3.2590   14.9920   -1.7260 N   0  0  0  0  0  0  0  0  0  0  0  0
   -3.3510   14.2950   -2.4530 H   0  0  0  0  0  0  0  0  0  0  0  0
   -2.1180   15.2430   -1.0130 C   0  0  0  0  0  0  0  0  0  0  0  0
   -1.2190   14.6710   -1.2100 H   0  0  0  0  0  0  0  0  0  0  0  0
   -2.3820   16.2520   -0.1050 C   0  0  0  0  0  0  0  0  0  0  0  0
   -1.4290   16.8120    0.8460 C   0  0  0  0  0  0  0  0  0  0  0  0
    0.0100   16.3350    0.8460 C   0  0  0  0  0  0  0  0  0  0  0  0
    0.9450   17.1500    0.2160 N   0  0  0  0  0  0  0  0  0  0  0  0
    2.3520   16.7520    0.1800 C   0  0  0  0  0  0  0  0  0  0  0  0
    2.5150   15.8300    0.7480 H   0  0  0  0  0  0  0  0  0  0  0  0
    2.5950   16.5440   -0.8690 H   0  0  0  0  0  0  0  0  0  0  0  0
    3.2630   17.8650    0.7180 C   0  0  0  0  0  0  0  0  0  0  0  0
    4.3030   17.5740    0.5580 H   0  0  0  0  0  0  0  0  0  0  0  0
    3.1050   17.9950    1.7950 H   0  0  0  0  0  0  0  0  0  0  0  0
    2.9560   19.1610    0.0860 N   0  0  0  0  0  0  0  0  0  0  0  0
    1.5390   19.5440    0.1140 C   0  0  0  0  0  0  0  0  0  0  0  0
    1.2860   19.7330    1.1640 H   0  0  0  0  0  0  0  0  0  0  0  0
    1.3680   20.4720   -0.4400 H   0  0  0  0  0  0  0  0  0  0  0  0
    0.6490   18.4290   -0.4460 C   0  0  0  0  0  0  0  0  0  0  0  0
    0.8530   18.2860   -1.5140 H   0  0  0  0  0  0  0  0  0  0  0  0
   -0.4020   18.7070   -0.3470 H   0  0  0  0  0  0  0  0  0  0  0  0
    3.8760   20.0140   -0.5180 C   0  0  0  0  0  0  0  0  0  0  0  0
    5.3190   19.7230   -0.3780 C   0  0  0  0  0  0  0  0  0  0  0  0
    5.9210   19.7220    0.8850 C   0  0  0  0  0  0  0  0  0  0  0  0
    5.3350   19.9170    1.7780 H   0  0  0  0  0  0  0  0  0  0  0  0
    7.2900   19.4760    0.9920 C   0  0  0  0  0  0  0  0  0  0  0  0
    7.7670   19.4680    1.9690 H   0  0  0  0  0  0  0  0  0  0  0  0
    8.0510   19.2490   -0.1570 C   0  0  0  0  0  0  0  0  0  0  0  0
    9.1190   19.0610   -0.0700 H   0  0  0  0  0  0  0  0  0  0  0  0
    7.4500   19.2740   -1.4170 C   0  0  0  0  0  0  0  0  0  0  0  0
    8.0500   19.1090   -2.3080 H   0  0  0  0  0  0  0  0  0  0  0  0
    6.0820   19.5170   -1.5320 C   0  0  0  0  0  0  0  0  0  0  0  0
    5.6140   19.5490   -2.5130 H   0  0  0  0  0  0  0  0  0  0  0  0
   -1.7220   17.6850    1.6590 O   0  0  0  0  0  0  0  0  0  0  0  0
    0.2500   15.2640    1.3930 O   0  0  0  0  0  0  0  0  0  0  0  0
    3.5710   21.0090   -1.1690 O   0  0  0  0  0  0  0  0  0  0  0  0
   -7.0630   18.9770    0.6650 Br  0  0  0  0  0  0  0  0  0  0  0  0
  1  2  1  0  0  0  0
  1  8  2  0  0  0  0
  1 46  1  0  0  0  0
  2  3  1  0  0  0  0
  2  4  2  0  0  0  0
  4  5  1  0  0  0  0
  4  6  1  0  0  0  0
  6  7  2  0  0  0  0
  6 10  1  0  0  0  0
  7  8  1  0  0  0  0
  7 14  1  0  0  0  0
  8  9  1  0  0  0  0
 10 11  1  0  0  0  0
 10 12  1  0  0  0  0
 12 13  1  0  0  0  0
 12 14  2  0  0  0  0
 14 15  1  0  0  0  0
 15 16  1  0  0  0  0
 15 43  2  0  0  0  0
 16 17  1  0  0  0  0
 16 44  2  0  0  0  0
 17 18  1  0  0  0  0
 17 28  1  0  0  0  0
 18 19  1  0  0  0  0
 18 20  1  0  0  0  0
 18 21  1  0  0  0  0
 21 22  1  0  0  0  0
 21 23  1  0  0  0  0
 21 24  1  0  0  0  0
 24 25  1  0  0  0  0
 24 31  1  0  0  0  0
 25 26  1  0  0  0  0
 25 27  1  0  0  0  0
 25 28  1  0  0  0  0
 28 29  1  0  0  0  0
 28 30  1  0  0  0  0
 31 32  1  0  0  0  0
 31 45  2  0  0  0  0
 32 33  1  0  0  0  0
 32 41  2  0  0  0  0
 33 34  1  0  0  0  0
 33 35  2  0  0  0  0
 35 36  1  0  0  0  0
 35 37  1  0  0  0  0
 37 38  1  0  0  0  0
 37 39  2  0  0  0  0
 39 40  1  0  0  0  0
 39 41  1  0  0  0  0
 41 42  1  0  0  0  0
M  END
>  <Activity>
5.9624

>  <AM1_dipole>
5.9595

>  <AM1_E>
-112298

>  <AM1_Eele>
-817781

>  <AM1_HF>
22.1098

>  <AM1_HOMO>
-9.08204

>  <AM1_IP>
9.08204

>  <AM1_LUMO>
-0.67097

>  <diameter>
15

>  <petitjean>
0.466667

>  <petitjeanSC>
0.875

>  <radius>
8

>  <VDistEq>
3.68367

>  <VDistMa>
9.29141

>  <weinerPath>
2231

>  <weinerPol>
46

>  <BCUT_PEOE_0>
-2.71189

>  <BCUT_PEOE_1>
-0.641071

>  <BCUT_PEOE_2>
0.656235

>  <BCUT_PEOE_3>
2.65023

>  <BCUT_SLOGP_0>
-2.86001

>  <BCUT_SLOGP_1>
-0.53808

>  <BCUT_SLOGP_2>
0.805915

>  <BCUT_SLOGP_3>
2.50352

>  <BCUT_SMR_0>
-2.43203

>  <BCUT_SMR_1>
-0.423421

>  <BCUT_SMR_2>
0.854311

>  <BCUT_SMR_3>
2.92025

>  <GCUT_PEOE_0>
-0.860548

>  <GCUT_PEOE_1>
-0.403743

>  <GCUT_PEOE_2>
0.080099

>  <GCUT_PEOE_3>
2.6489

>  <GCUT_SLOGP_0>
-0.976483

>  <GCUT_SLOGP_1>
-0.324728

>  <GCUT_SLOGP_2>
0.164454

>  <GCUT_SLOGP_3>
2.63905

>  <GCUT_SMR_0>
-0.508911

>  <GCUT_SMR_1>
-0.216057

>  <GCUT_SMR_2>
0.233002

>  <GCUT_SMR_3>
2.92531

>  <a_aro>
15

>  <a_count>
46

>  <a_IC>
77.2768

>  <a_ICM>
1.67993

>  <a_nH>
18

>  <b_1rotN>
5

>  <b_1rotR>
0.16129

>  <b_ar>
16

>  <b_count>
49

>  <b_double>
3

>  <b_rotN>
5

>  <b_rotR>
0.16129

>  <b_single>
30

>  <b_triple>
0

>  <chi0v>
16.6077

>  <chi0v_C>
12.0246

>  <chi1v>
9.78255

>  <chi1v_C>
5.93739

>  <chiral>
0

>  <chiral_u>
0

>  <nmol>
1

>  <reactive>
0

>  <rings>
4

>  <Weight>
440.297

>  <a_heavy>
28

>  <a_nB>
0

>  <a_nBr>
1

>  <a_nC>
21

>  <a_nCl>
0

>  <a_nF>
0

>  <a_nI>
0

>  <a_nN>
3

>  <a_nO>
3

>  <a_nP>
0

>  <a_nS>
0

>  <b_heavy>
31

>  <chi0>
19.673

>  <chi0_C>
13.8112

>  <chi1>
13.5417

>  <chi1_C>
8.0244

>  <FCharge>
0

>  <VAdjEq>
0.398935

>  <VAdjMa>
5.9542

>  <zagreb>
150

>  <balabanJ>
1.28116

>  <PEOE_PC+>
2.29314

>  <PEOE_PC->
-2.29314

>  <PEOE_RPC+>
0.128688

>  <PEOE_RPC->
0.156966

>  <PEOE_VSA+0>
82.8841

>  <PEOE_VSA+1>
74.7201

>  <PEOE_VSA+2>
0

>  <PEOE_VSA+3>
8.61901

>  <PEOE_VSA+4>
0

>  <PEOE_VSA+5>
34.3576

>  <PEOE_VSA+6>
0

>  <PEOE_VSA-0>
61.2745

>  <PEOE_VSA-1>
80.3896

>  <PEOE_VSA-2>
0

>  <PEOE_VSA-3>
0

>  <PEOE_VSA-4>
0

>  <PEOE_VSA-5>
40.7008

>  <PEOE_VSA-6>
0.136891

>  <PEOE_VSA_FHYD>
0.80371

>  <PEOE_VSA_FNEG>
0.476403

>  <PEOE_VSA_FPNEG>
0.106603

>  <PEOE_VSA_FPOL>
0.19629

>  <PEOE_VSA_FPOS>
0.523597

>  <PEOE_VSA_FPPOS>
0.0896872

>  <PEOE_VSA_HYD>
307.887

>  <PEOE_VSA_NEG>
182.502

>  <PEOE_VSA_PNEG>
40.8377

>  <PEOE_VSA_POL>
75.1952

>  <PEOE_VSA_POS>
200.581

>  <PEOE_VSA_PPOS>
34.3576

>  <PC+>
4.88

>  <PC->
-4.881

>  <Q_PC+>
4.88

>  <Q_PC->
-4.881

>  <Q_RPC+>
0.134426

>  <Q_RPC->
0.135218

>  <Q_VSA_FHYD>
0.600106

>  <Q_VSA_FNEG>
0.543013

>  <Q_VSA_FPNEG>
0.149959

>  <Q_VSA_FPOL>
0.399894

>  <Q_VSA_FPOS>
0.456987

>  <Q_VSA_FPPOS>
0.249935

>  <Q_VSA_HYD>
229.89

>  <Q_VSA_NEG>
208.019

>  <Q_VSA_PNEG>
57.4467

>  <Q_VSA_POL>
153.193

>  <Q_VSA_POS>
175.064

>  <Q_VSA_PPOS>
95.7459

>  <RPC+>
0.134426

>  <RPC->
0.135218

>  <lip_acc>
6

>  <lip_don>
1

>  <lip_druglike>
1

>  <lip_violation>
0

>  <opr_brigid>
22

>  <opr_leadlike>
1

>  <opr_nring>
4

>  <opr_nrot>
5

>  <opr_violation>
0

>  <E>
90.9583

>  <E_ang>
7.81537

>  <E_ele>
29.1257

>  <E_nb>
75.2111

>  <E_oop>
0.024317

>  <E_sol>
-19.3042

>  <E_stb>
0.27493

>  <E_str>
5.86867

>  <E_strain>
0.00443403

>  <E_tor>
1.76394

>  <E_vdw>
46.0853

>  <E_rele>
0

>  <E_rnb>
7.10543e-014

>  <E_rsol>
7.10543e-014

>  <E_rvdw>
0

>  <Kier1>
21.2404

>  <Kier2>
9.42769

>  <Kier3>
4.69444

>  <KierA1>
16.0228

>  <KierA2>
7.03228

>  <KierA3>
3.4737

>  <KierFlex>
4.02418

>  <logS>
-5.11998

>  <MNDO_dipole>
5.86301

>  <MNDO_E>
-112380

>  <MNDO_Eele>
-811083

>  <MNDO_HF>
-13.004

>  <MNDO_HOMO>
-9.05628

>  <MNDO_IP>
9.05628

>  <MNDO_LUMO>
-0.66504

>  <apol>
57.7183

>  <bpol>
28.4617

>  <mr>
11.0301

>  <dipole>
1.46892

>  <dipoleX>
0.636817

>  <dipoleY>
-1.02219

>  <dipoleZ>
-0.84102

>  <pmi>
12085.3

>  <pmiX>
10523

>  <pmiY>
1148.87

>  <pmiZ>
413.425

>  <rgyr>
5.23909

>  <a_acc>
3

>  <a_acid>
0

>  <a_base>
0

>  <a_don>
1

>  <a_hyd>
19

>  <vsa_acc>
40.7008

>  <vsa_acid>
0

>  <vsa_base>
0

>  <vsa_don>
5.68258

>  <vsa_hyd>
287.168

>  <vsa_other>
34.3576

>  <vsa_pol>
46.3833

>  <PM3_dipole>
5.81766

>  <PM3_E>
-103441

>  <PM3_Eele>
-808667

>  <PM3_HF>
-27.2763

>  <PM3_HOMO>
-9.00342

>  <PM3_IP>
9.00342

>  <PM3_LUMO>
-0.7253

>  <SlogP>
3.0977

>  <SlogP_VSA0>
0

>  <SlogP_VSA1>
22.4538

>  <SlogP_VSA2>
40.6477

>  <SlogP_VSA3>
73.7583

>  <SlogP_VSA4>
54.0956

>  <SlogP_VSA5>
3.0551

>  <SlogP_VSA6>
0

>  <SlogP_VSA7>
163.077

>  <SlogP_VSA8>
0

>  <SlogP_VSA9>
45.9541

>  <SMR>
10.9255

>  <SMR_VSA0>
71.5866

>  <SMR_VSA1>
6.24863

>  <SMR_VSA2>
19.8406

>  <SMR_VSA3>
6.37115

>  <SMR_VSA4>
4.7171

>  <SMR_VSA5>
158.36

>  <SMR_VSA6>
89.9635

>  <SMR_VSA7>
45.9541

>  <ASA>
659.203

>  <ASA+>
231.921

>  <ASA->
322.292

>  <ASA_H>
502.932

>  <ASA_P>
156.272

>  <CASA+>
1131.78

>  <CASA->
1573.11

>  <DASA>
90.3704

>  <DCASA>
441.33

>  <FASA+>
0.351821

>  <FASA->
0.488911

>  <FASA_H>
0.762938

>  <FASA_P>
0.237062

>  <FCASA+>
1.71688

>  <FCASA->
2.38637

>  <VSA>
404.289

>  <TPSA>
73.48

>  <density>
0.855561

>  <vdw_area>
383.082

>  <vdw_vol>
514.63

>  <vsurf_A>
1.4516

>  <vsurf_CP>
0.155825

>  <vsurf_CW1>
2.65536

>  <vsurf_CW2>
2.0952

>  <vsurf_CW3>
1.20443

>  <vsurf_CW4>
0.514459

>  <vsurf_CW5>
0.202908

>  <vsurf_CW6>
0.0564163

>  <vsurf_CW7>
0.00420058

>  <vsurf_CW8>
0

>  <vsurf_D1>
1011.88

>  <vsurf_D2>
590.25

>  <vsurf_D3>
436.25

>  <vsurf_D4>
371.875

>  <vsurf_D5>
322.375

>  <vsurf_D6>
270

>  <vsurf_D7>
158.125

>  <vsurf_D8>
79.125

>  <vsurf_DD12>
0.5

>  <vsurf_DD13>
5.38516

>  <vsurf_DD23>
5.22015

>  <vsurf_DW12>
0.5

>  <vsurf_DW13>
0.707107

>  <vsurf_DW23>
0.866025

>  <vsurf_EDmin1>
-2.6568

>  <vsurf_EDmin2>
-2.6548

>  <vsurf_EDmin3>
-2.64168

>  <vsurf_EWmin1>
-5.60838

>  <vsurf_EWmin2>
-5.55067

>  <vsurf_EWmin3>
-5.27694

>  <vsurf_G>
1.368

>  <vsurf_HB1>
306.5

>  <vsurf_HB2>
329.25

>  <vsurf_HB3>
289.625

>  <vsurf_HB4>
103.375

>  <vsurf_HB5>
32.375

>  <vsurf_HB6>
7.375

>  <vsurf_HB7>
1

>  <vsurf_HB8>
0

>  <vsurf_HL1>
0.0885387

>  <vsurf_HL2>
0.0242017

>  <vsurf_ID1>
0.594235

>  <vsurf_ID2>
0.663702

>  <vsurf_ID3>
0.860468

>  <vsurf_ID4>
0.945836

>  <vsurf_ID5>
0.996896

>  <vsurf_ID6>
0.888502

>  <vsurf_ID7>
0.759514

>  <vsurf_ID8>
1.13948

>  <vsurf_IW1>
0.667782

>  <vsurf_IW2>
0.712703

>  <vsurf_IW3>
0.853765

>  <vsurf_IW4>
1.23343

>  <vsurf_IW5>
1.63467

>  <vsurf_IW6>
2.25347

>  <vsurf_IW7>
2.89801

>  <vsurf_IW8>
0

>  <vsurf_R>
1.44058

>  <vsurf_S>
600.885

>  <vsurf_V>
865.625

>  <vsurf_W1>
1445.75

>  <vsurf_W2>
805.625

>  <vsurf_W3>
373.5

>  <vsurf_W4>
119.875

>  <vsurf_W5>
38.625

>  <vsurf_W6>
9

>  <vsurf_W7>
1

>  <vsurf_W8>
0

>  <vsurf_Wp1>
1139.25

>  <vsurf_Wp2>
476.375

>  <vsurf_Wp3>
83.875

>  <vsurf_Wp4>
16.5

>  <vsurf_Wp5>
6.25

>  <vsurf_Wp6>
1.625

>  <vsurf_Wp7>
0

>  <vsurf_Wp8>
0

>  <dens>
1.18519

>  <glob>
0.058847

>  <std_dim1>
4.72028

>  <std_dim2>
1.37714

>  <std_dim3>
1.14506

>  <vol>
371.5

>  <logP(o/w)>
2.918

$$$$
D2.cdx
  MOE2008           3D

 49 52  0  0  0  0  0  0  0  0999 V2000
   -5.9750   13.7640   -0.0310 C   0  0  0  0  0  0  0  0  0  0  0  0
   -6.4320   13.0420    1.0760 C   0  0  0  0  0  0  0  0  0  0  0  0
   -7.4670   13.1420    1.3990 H   0  0  0  0  0  0  0  0  0  0  0  0
   -5.5900   12.1800    1.7860 C   0  0  0  0  0  0  0  0  0  0  0  0
   -5.9620   11.6200    2.6380 H   0  0  0  0  0  0  0  0  0  0  0  0
   -4.2620   12.0720    1.3580 C   0  0  0  0  0  0  0  0  0  0  0  0
   -3.7580   12.7840    0.2690 C   0  0  0  0  0  0  0  0  0  0  0  0
   -4.6320   13.6470   -0.4280 C   0  0  0  0  0  0  0  0  0  0  0  0
   -4.2620   14.2180   -1.2770 H   0  0  0  0  0  0  0  0  0  0  0  0
   -3.2320   11.3130    1.8590 N   0  0  0  0  0  0  0  0  0  0  0  0
   -3.3110   10.6910    2.6530 H   0  0  0  0  0  0  0  0  0  0  0  0
   -2.0920   11.5220    1.1300 C   0  0  0  0  0  0  0  0  0  0  0  0
   -1.1810   10.9960    1.3880 H   0  0  0  0  0  0  0  0  0  0  0  0
   -2.3760   12.4300    0.1260 C   0  0  0  0  0  0  0  0  0  0  0  0
   -1.4300   12.9160   -0.8710 C   0  0  0  0  0  0  0  0  0  0  0  0
   -0.0030   12.4040   -0.8690 C   0  0  0  0  0  0  0  0  0  0  0  0
    0.9650   13.2210   -0.2930 N   0  0  0  0  0  0  0  0  0  0  0  0
    2.3570   12.7730   -0.2430 C   0  0  0  0  0  0  0  0  0  0  0  0
    2.5970   12.6080    0.8150 H   0  0  0  0  0  0  0  0  0  0  0  0
    2.4840   11.8200   -0.7640 H   0  0  0  0  0  0  0  0  0  0  0  0
    3.3080   13.8240   -0.8350 C   0  0  0  0  0  0  0  0  0  0  0  0
    3.1490   13.9090   -1.9160 H   0  0  0  0  0  0  0  0  0  0  0  0
    4.3360   13.5000   -0.6660 H   0  0  0  0  0  0  0  0  0  0  0  0
    3.0550   15.1560   -0.2610 N   0  0  0  0  0  0  0  0  0  0  0  0
    1.6550   15.5940   -0.3110 C   0  0  0  0  0  0  0  0  0  0  0  0
    1.5200   16.5540    0.1960 H   0  0  0  0  0  0  0  0  0  0  0  0
    1.4100   15.7430   -1.3700 H   0  0  0  0  0  0  0  0  0  0  0  0
    0.7190   14.5440    0.2990 C   0  0  0  0  0  0  0  0  0  0  0  0
   -0.3200   14.8570    0.1780 H   0  0  0  0  0  0  0  0  0  0  0  0
    0.9120   14.4490    1.3740 H   0  0  0  0  0  0  0  0  0  0  0  0
    4.0070   15.9960    0.3100 C   0  0  0  0  0  0  0  0  0  0  0  0
    5.4370   15.6390    0.1910 C   0  0  0  0  0  0  0  0  0  0  0  0
    6.0450   15.5650   -1.0670 C   0  0  0  0  0  0  0  0  0  0  0  0
    5.4710   15.7510   -1.9710 H   0  0  0  0  0  0  0  0  0  0  0  0
    7.4020   15.2550   -1.1550 C   0  0  0  0  0  0  0  0  0  0  0  0
    7.8830   15.1900   -2.1280 H   0  0  0  0  0  0  0  0  0  0  0  0
    8.1460   15.0380    0.0070 C   0  0  0  0  0  0  0  0  0  0  0  0
    9.2050   14.8010   -0.0650 H   0  0  0  0  0  0  0  0  0  0  0  0
    7.5400   15.1360    1.2610 C   0  0  0  0  0  0  0  0  0  0  0  0
    8.1280   14.9790    2.1620 H   0  0  0  0  0  0  0  0  0  0  0  0
    6.1830   15.4440    1.3570 C   0  0  0  0  0  0  0  0  0  0  0  0
    5.7110   15.5320    2.3330 H   0  0  0  0  0  0  0  0  0  0  0  0
   -1.7190   13.7440   -1.7310 O   0  0  0  0  0  0  0  0  0  0  0  0
    0.2010   11.3010   -1.3650 O   0  0  0  0  0  0  0  0  0  0  0  0
    3.7410   17.0300    0.9160 O   0  0  0  0  0  0  0  0  0  0  0  0
   -6.8950   14.7030   -0.7540 C   0  0  0  0  0  0  0  0  0  0  0  0
   -7.9290   14.3470   -0.7140 H   0  0  0  0  0  0  0  0  0  0  0  0
   -6.6210   14.7810   -1.8120 H   0  0  0  0  0  0  0  0  0  0  0  0
   -6.8450   15.6980   -0.3020 H   0  0  0  0  0  0  0  0  0  0  0  0
  1  2  1  0  0  0  0
  1  8  2  0  0  0  0
  1 46  1  0  0  0  0
  2  3  1  0  0  0  0
  2  4  2  0  0  0  0
  4  5  1  0  0  0  0
  4  6  1  0  0  0  0
  6  7  2  0  0  0  0
  6 10  1  0  0  0  0
  7  8  1  0  0  0  0
  7 14  1  0  0  0  0
  8  9  1  0  0  0  0
 10 11  1  0  0  0  0
 10 12  1  0  0  0  0
 12 13  1  0  0  0  0
 12 14  2  0  0  0  0
 14 15  1  0  0  0  0
 15 16  1  0  0  0  0
 15 43  2  0  0  0  0
 16 17  1  0  0  0  0
 16 44  2  0  0  0  0
 17 18  1  0  0  0  0
 17 28  1  0  0  0  0
 18 19  1  0  0  0  0
 18 20  1  0  0  0  0
 18 21  1  0  0  0  0
 21 22  1  0  0  0  0
 21 23  1  0  0  0  0
 21 24  1  0  0  0  0
 24 25  1  0  0  0  0
 24 31  1  0  0  0  0
 25 26  1  0  0  0  0
 25 27  1  0  0  0  0
 25 28  1  0  0  0  0
 28 29  1  0  0  0  0
 28 30  1  0  0  0  0
 31 32  1  0  0  0  0
 31 45  2  0  0  0  0
 32 33  1  0  0  0  0
 32 41  2  0  0  0  0
 33 34  1  0  0  0  0
 33 35  2  0  0  0  0
 35 36  1  0  0  0  0
 35 37  1  0  0  0  0
 37 38  1  0  0  0  0
 37 39  2  0  0  0  0
 39 40  1  0  0  0  0
 39 41  1  0  0  0  0
 41 42  1  0  0  0  0
 46 47  1  0  0  0  0
 46 48  1  0  0  0  0
 46 49  1  0  0  0  0
M  END
>  <Activity>
5.81

>  <AM1_dipole>
4.44598

>  <AM1_E>
-108061

>  <AM1_Eele>
-819054

>  <AM1_HF>
-5.95228

>  <AM1_HOMO>
-8.83509

>  <AM1_IP>
8.83509

>  <AM1_LUMO>
-0.45115

>  <diameter>
15

>  <petitjean>
0.466667

>  <petitjeanSC>
0.875

>  <radius>
8

>  <VDistEq>
3.68367

>  <VDistMa>
9.29141

>  <weinerPath>
2231

>  <weinerPol>
46

>  <BCUT_PEOE_0>
-2.71189

>  <BCUT_PEOE_1>
-0.631862

>  <BCUT_PEOE_2>
0.654703

>  <BCUT_PEOE_3>
2.65023

>  <BCUT_SLOGP_0>
-2.86001

>  <BCUT_SLOGP_1>
-0.53808

>  <BCUT_SLOGP_2>
0.717293

>  <BCUT_SLOGP_3>
2.50372

>  <BCUT_SMR_0>
-2.43203

>  <BCUT_SMR_1>
-0.421825

>  <BCUT_SMR_2>
0.818095

>  <BCUT_SMR_3>
2.92026

>  <GCUT_PEOE_0>
-0.860658

>  <GCUT_PEOE_1>
-0.403742

>  <GCUT_PEOE_2>
0.080099

>  <GCUT_PEOE_3>
2.67356

>  <GCUT_SLOGP_0>
-0.976488

>  <GCUT_SLOGP_1>
-0.323395

>  <GCUT_SLOGP_2>
0.137692

>  <GCUT_SLOGP_3>
2.66816

>  <GCUT_SMR_0>
-0.508932

>  <GCUT_SMR_1>
-0.216057

>  <GCUT_SMR_2>
0.193051

>  <GCUT_SMR_3>
2.94781

>  <a_aro>
15

>  <a_count>
49

>  <a_IC>
75.2648

>  <a_ICM>
1.53602

>  <a_nH>
21

>  <b_1rotN>
5

>  <b_1rotR>
0.16129

>  <b_ar>
16

>  <b_count>
52

>  <b_double>
3

>  <b_rotN>
5

>  <b_rotR>
0.16129

>  <b_single>
33

>  <b_triple>
0

>  <chi0v>
15.6438

>  <chi0v_C>
13.0246

>  <chi1v>
9.30056

>  <chi1v_C>
6.43739

>  <chiral>
0

>  <chiral_u>
0

>  <nmol>
1

>  <reactive>
0

>  <rings>
4

>  <Weight>
375.428

>  <a_heavy>
28

>  <a_nB>
0

>  <a_nBr>
0

>  <a_nC>
22

>  <a_nCl>
0

>  <a_nF>
0

>  <a_nI>
0

>  <a_nN>
3

>  <a_nO>
3

>  <a_nP>
0

>  <a_nS>
0

>  <b_heavy>
31

>  <chi0>
19.673

>  <chi0_C>
14.8112

>  <chi1>
13.5417

>  <chi1_C>
8.60176

>  <FCharge>
0

>  <VAdjEq>
0.398935

>  <VAdjMa>
5.9542

>  <zagreb>
150

>  <balabanJ>
1.28116

>  <PEOE_PC+>
2.35525

>  <PEOE_PC->
-2.35525

>  <PEOE_RPC+>
0.125294

>  <PEOE_RPC->
0.152827

>  <PEOE_VSA+0>
93.428

>  <PEOE_VSA+1>
74.7201

>  <PEOE_VSA+2>
0

>  <PEOE_VSA+3>
8.61901

>  <PEOE_VSA+4>
0

>  <PEOE_VSA+5>
34.3576

>  <PEOE_VSA+6>
0

>  <PEOE_VSA-0>
69.9758

>  <PEOE_VSA-1>
49.0196

>  <PEOE_VSA-2>
0

>  <PEOE_VSA-3>
0

>  <PEOE_VSA-4>
0

>  <PEOE_VSA-5>
40.7008

>  <PEOE_VSA-6>
0.136891

>  <PEOE_VSA_FHYD>
0.797294

>  <PEOE_VSA_FNEG>
0.430866

>  <PEOE_VSA_FPNEG>
0.110087

>  <PEOE_VSA_FPOL>
0.202706

>  <PEOE_VSA_FPOS>
0.569134

>  <PEOE_VSA_FPPOS>
0.0926186

>  <PEOE_VSA_HYD>
295.763

>  <PEOE_VSA_NEG>
159.833

>  <PEOE_VSA_PNEG>
40.8377

>  <PEOE_VSA_POL>
75.1952

>  <PEOE_VSA_POS>
211.125

>  <PEOE_VSA_PPOS>
34.3576

>  <PC+>
4.913

>  <PC->
-4.914

>  <Q_PC+>
4.913

>  <Q_PC->
-4.914

>  <Q_RPC+>
0.133523

>  <Q_RPC->
0.13431

>  <Q_VSA_FHYD>
0.587035

>  <Q_VSA_FNEG>
0.449115

>  <Q_VSA_FPNEG>
0.15486

>  <Q_VSA_FPOL>
0.412965

>  <Q_VSA_FPOS>
0.550885

>  <Q_VSA_FPPOS>
0.258105

>  <Q_VSA_HYD>
217.765

>  <Q_VSA_NEG>
166.603

>  <Q_VSA_PNEG>
57.4467

>  <Q_VSA_POL>
153.193

>  <Q_VSA_POS>
204.355

>  <Q_VSA_PPOS>
95.7459

>  <RPC+>
0.133523

>  <RPC->
0.13431

>  <lip_acc>
6

>  <lip_don>
1

>  <lip_druglike>
1

>  <lip_violation>
0

>  <opr_brigid>
22

>  <opr_leadlike>
1

>  <opr_nring>
4

>  <opr_nrot>
5

>  <opr_violation>
0

>  <E>
94.1609

>  <E_ang>
8.09253

>  <E_ele>
30.7417

>  <E_nb>
78.1068

>  <E_oop>
0.0345486

>  <E_sol>
-19.0426

>  <E_stb>
0.176755

>  <E_str>
6.10272

>  <E_strain>
0.00459172

>  <E_tor>
1.64754

>  <E_vdw>
47.3651

>  <E_rele>
0

>  <E_rnb>
0

>  <E_rsol>
0

>  <E_rvdw>
0

>  <Kier1>
21.2404

>  <Kier2>
9.42769

>  <Kier3>
4.69444

>  <KierA1>
14.5633

>  <KierA2>
6.36575

>  <KierA3>
3.13532

>  <KierFlex>
3.31095

>  <logS>
-4.50351

>  <MNDO_dipole>
5.02219

>  <MNDO_E>
-108299

>  <MNDO_Eele>
-809120

>  <MNDO_HF>
-23.128

>  <MNDO_HOMO>
-8.83079

>  <MNDO_IP>
8.83079

>  <MNDO_LUMO>
-0.4823

>  <apol>
58.4287

>  <bpol>
30.4513

>  <mr>
10.7264

>  <dipole>
1.06165

>  <dipoleX>
0.379695

>  <dipoleY>
-0.693164

>  <dipoleZ>
0.708838

>  <pmi>
8913.5

>  <pmiX>
7572.98

>  <pmiY>
946.185

>  <pmiZ>
394.329

>  <rgyr>
4.8726

>  <a_acc>
3

>  <a_acid>
0

>  <a_base>
0

>  <a_don>
1

>  <a_hyd>
19

>  <vsa_acc>
40.7008

>  <vsa_acid>
0

>  <vsa_base>
0

>  <vsa_don>
5.68258

>  <vsa_hyd>
272.908

>  <vsa_other>
34.3576

>  <vsa_pol>
46.3833

>  <PM3_dipole>
4.69382

>  <PM3_E>
-99098.5

>  <PM3_Eele>
-808359

>  <PM3_HF>
-44.2966

>  <PM3_HOMO>
-8.74778

>  <PM3_IP>
8.74778

>  <PM3_LUMO>
-0.5199

>  <SlogP>
2.64362

>  <SlogP_VSA0>
0

>  <SlogP_VSA1>
22.4538

>  <SlogP_VSA2>
40.6477

>  <SlogP_VSA3>
73.7583

>  <SlogP_VSA4>
57.2812

>  <SlogP_VSA5>
0

>  <SlogP_VSA6>
0

>  <SlogP_VSA7>
163.077

>  <SlogP_VSA8>
0

>  <SlogP_VSA9>
33.326

>  <SMR>
10.6292

>  <SMR_VSA0>
71.5866

>  <SMR_VSA1>
6.24863

>  <SMR_VSA2>
16.7855

>  <SMR_VSA3>
9.55672

>  <SMR_VSA4>
4.7171

>  <SMR_VSA5>
158.36

>  <SMR_VSA6>
89.9635

>  <SMR_VSA7>
33.326

>  <ASA>
649.782

>  <ASA+>
254.707

>  <ASA->
231.088

>  <ASA_H>
495.191

>  <ASA_P>
154.591

>  <CASA+>
1251.37

>  <CASA->
1135.56

>  <DASA>
23.6193

>  <DCASA>
115.81

>  <FASA+>
0.391988

>  <FASA->
0.355638

>  <FASA_H>
0.762088

>  <FASA_P>
0.237912

>  <FCASA+>
1.92584

>  <FCASA->
1.74761

>  <VSA>
395.13

>  <TPSA>
73.48

>  <density>
0.736031

>  <vdw_area>
370.958

>  <vdw_vol>
510.071

>  <vsurf_A>
1.27977

>  <vsurf_CP>
0.150058

>  <vsurf_CW1>
2.62561

>  <vsurf_CW2>
1.99547

>  <vsurf_CW3>
1.19581

>  <vsurf_CW4>
0.516806

>  <vsurf_CW5>
0.202636

>  <vsurf_CW6>
0.0587237

>  <vsurf_CW7>
0.00440664

>  <vsurf_CW8>
0

>  <vsurf_D1>
925

>  <vsurf_D2>
546.375

>  <vsurf_D3>
415

>  <vsurf_D4>
360.5

>  <vsurf_D5>
313

>  <vsurf_D6>
243.625

>  <vsurf_D7>
136.75

>  <vsurf_D8>
72.75

>  <vsurf_DD12>
0.5

>  <vsurf_DD13>
5.38516

>  <vsurf_DD23>
5.22015

>  <vsurf_DW12>
0.866025

>  <vsurf_DW13>
0.707107

>  <vsurf_DW23>
0.5

>  <vsurf_EDmin1>
-2.65168

>  <vsurf_EDmin2>
-2.60346

>  <vsurf_EDmin3>
-2.60325

>  <vsurf_EWmin1>
-5.37057

>  <vsurf_EWmin2>
-5.36359

>  <vsurf_EWmin3>
-5.28513

>  <vsurf_G>
1.36603

>  <vsurf_HB1>
284.875

>  <vsurf_HB2>
314

>  <vsurf_HB3>
287.75

>  <vsurf_HB4>
100

>  <vsurf_HB5>
31.5

>  <vsurf_HB6>
7.25

>  <vsurf_HB7>
1.125

>  <vsurf_HB8>
0

>  <vsurf_HL1>
0.0924699

>  <vsurf_HL2>
0.0246186

>  <vsurf_ID1>
0.346018

>  <vsurf_ID2>
0.389482

>  <vsurf_ID3>
0.38581

>  <vsurf_ID4>
0.387911

>  <vsurf_ID5>
0.377672

>  <vsurf_ID6>
0.778171

>  <vsurf_ID7>
0.640579

>  <vsurf_ID8>
1.06684

>  <vsurf_IW1>
0.146687

>  <vsurf_IW2>
0.241189

>  <vsurf_IW3>
0.441767

>  <vsurf_IW4>
0.868016

>  <vsurf_IW5>
0.912497

>  <vsurf_IW6>
1.66527

>  <vsurf_IW7>
2.58469

>  <vsurf_IW8>
0

>  <vsurf_R>
1.43316

>  <vsurf_S>
592.136

>  <vsurf_V>
848.625

>  <vsurf_W1>
1364.5

>  <vsurf_W2>
765.125

>  <vsurf_W3>
364.125

>  <vsurf_W4>
117.75

>  <vsurf_W5>
38.375

>  <vsurf_W6>
8.875

>  <vsurf_W7>
1.125

>  <vsurf_W8>
0

>  <vsurf_Wp1>
1079.63

>  <vsurf_Wp2>
451.125

>  <vsurf_Wp3>
76.375

>  <vsurf_Wp4>
17.75

>  <vsurf_Wp5>
6.875

>  <vsurf_Wp6>
1.625

>  <vsurf_Wp7>
0

>  <vsurf_Wp8>
0

>  <dens>
1.03104

>  <glob>
0.051118

>  <std_dim1>
4.94096

>  <std_dim2>
1.49109

>  <std_dim3>
1.11712

>  <vol>
364.125

>  <logP(o/w)>
2.418

$$$$
D2.cdx
  MOE2008           3D

 50 53  0  0  0  0  0  0  0  0999 V2000
   -5.6540    9.7520    0.6680 C   0  0  0  0  0  0  0  0  0  0  0  0
   -5.7540    8.4610    1.1840 C   0  0  0  0  0  0  0  0  0  0  0  0
   -6.6510    8.1210    1.6920 H   0  0  0  0  0  0  0  0  0  0  0  0
   -4.6980    7.5480    1.0640 C   0  0  0  0  0  0  0  0  0  0  0  0
   -4.7870    6.5430    1.4670 H   0  0  0  0  0  0  0  0  0  0  0  0
   -3.5360    7.9760    0.4120 C   0  0  0  0  0  0  0  0  0  0  0  0
   -3.4000    9.2580   -0.1180 C   0  0  0  0  0  0  0  0  0  0  0  0
   -4.4800   10.1550    0.0160 C   0  0  0  0  0  0  0  0  0  0  0  0
   -4.4090   11.1620   -0.3860 H   0  0  0  0  0  0  0  0  0  0  0  0
   -2.3650    7.3040    0.1570 N   0  0  0  0  0  0  0  0  0  0  0  0
   -2.1840    6.3450    0.4220 H   0  0  0  0  0  0  0  0  0  0  0  0
   -1.4870    8.1210   -0.5050 C   0  0  0  0  0  0  0  0  0  0  0  0
   -0.5090    7.7500   -0.7880 H   0  0  0  0  0  0  0  0  0  0  0  0
   -2.0970    9.3460   -0.7070 C   0  0  0  0  0  0  0  0  0  0  0  0
   -1.5080   10.4920   -1.3880 C   0  0  0  0  0  0  0  0  0  0  0  0
   -0.0590   10.4440   -1.8310 C   0  0  0  0  0  0  0  0  0  0  0  0
    0.8740   11.0580   -0.9970 N   0  0  0  0  0  0  0  0  0  0  0  0
    2.2920   10.9930   -1.3520 C   0  0  0  0  0  0  0  0  0  0  0  0
    2.4880   10.1020   -1.9580 H   0  0  0  0  0  0  0  0  0  0  0  0
    2.4990   11.8700   -1.9770 H   0  0  0  0  0  0  0  0  0  0  0  0
    3.1980   11.0010   -0.1170 C   0  0  0  0  0  0  0  0  0  0  0  0
    4.2480   11.0000   -0.4260 H   0  0  0  0  0  0  0  0  0  0  0  0
    3.0150   10.0970    0.4770 H   0  0  0  0  0  0  0  0  0  0  0  0
    2.9380   12.1490    0.7640 N   0  0  0  0  0  0  0  0  0  0  0  0
    1.6140   12.7700    0.6650 C   0  0  0  0  0  0  0  0  0  0  0  0
    1.3440   13.2320    1.6210 H   0  0  0  0  0  0  0  0  0  0  0  0
    1.7020   13.5750   -0.0760 H   0  0  0  0  0  0  0  0  0  0  0  0
    0.5280   11.7800    0.2350 C   0  0  0  0  0  0  0  0  0  0  0  0
   -0.4220   12.3070    0.1080 H   0  0  0  0  0  0  0  0  0  0  0  0
    0.3850   11.0190    1.0110 H   0  0  0  0  0  0  0  0  0  0  0  0
    3.8610   12.7000    1.6520 C   0  0  0  0  0  0  0  0  0  0  0  0
    5.1470   11.9990    1.8660 C   0  0  0  0  0  0  0  0  0  0  0  0
    5.1720   10.7010    2.3880 C   0  0  0  0  0  0  0  0  0  0  0  0
    4.2500   10.1860    2.6390 H   0  0  0  0  0  0  0  0  0  0  0  0
    6.3980   10.0700    2.6010 C   0  0  0  0  0  0  0  0  0  0  0  0
    6.4280    9.0600    3.0020 H   0  0  0  0  0  0  0  0  0  0  0  0
    7.5880   10.7390    2.3090 C   0  0  0  0  0  0  0  0  0  0  0  0
    8.5420   10.2460    2.4790 H   0  0  0  0  0  0  0  0  0  0  0  0
    7.5590   12.0430    1.8110 C   0  0  0  0  0  0  0  0  0  0  0  0
    8.4900   12.5640    1.5980 H   0  0  0  0  0  0  0  0  0  0  0  0
    6.3380   12.6800    1.5950 C   0  0  0  0  0  0  0  0  0  0  0  0
    6.3160   13.7000    1.2180 H   0  0  0  0  0  0  0  0  0  0  0  0
   -2.1260   11.5270   -1.6220 O   0  0  0  0  0  0  0  0  0  0  0  0
    0.1960    9.8560   -2.8760 O   0  0  0  0  0  0  0  0  0  0  0  0
    3.6810   13.7450    2.2710 O   0  0  0  0  0  0  0  0  0  0  0  0
   -6.6200   10.7210    0.7320 O   0  0  0  0  0  0  0  0  0  0  0  0
   -7.8430   10.3700    1.3650 C   0  0  0  0  0  0  0  0  0  0  0  0
   -8.5020   11.2430    1.3240 H   0  0  0  0  0  0  0  0  0  0  0  0
   -7.6860   10.1220    2.4200 H   0  0  0  0  0  0  0  0  0  0  0  0
   -8.3420    9.5520    0.8350 H   0  0  0  0  0  0  0  0  0  0  0  0
  1  2  1  0  0  0  0
  1  8  2  0  0  0  0
  1 46  1  0  0  0  0
  2  3  1  0  0  0  0
  2  4  2  0  0  0  0
  4  5  1  0  0  0  0
  4  6  1  0  0  0  0
  6  7  2  0  0  0  0
  6 10  1  0  0  0  0
  7  8  1  0  0  0  0
  7 14  1  0  0  0  0
  8  9  1  0  0  0  0
 10 11  1  0  0  0  0
 10 12  1  0  0  0  0
 12 13  1  0  0  0  0
 12 14  2  0  0  0  0
 14 15  1  0  0  0  0
 15 16  1  0  0  0  0
 15 43  2  0  0  0  0
 16 17  1  0  0  0  0
 16 44  2  0  0  0  0
 17 18  1  0  0  0  0
 17 28  1  0  0  0  0
 18 19  1  0  0  0  0
 18 20  1  0  0  0  0
 18 21  1  0  0  0  0
 21 22  1  0  0  0  0
 21 23  1  0  0  0  0
 21 24  1  0  0  0  0
 24 25  1  0  0  0  0
 24 31  1  0  0  0  0
 25 26  1  0  0  0  0
 25 27  1  0  0  0  0
 25 28  1  0  0  0  0
 28 29  1  0  0  0  0
 28 30  1  0  0  0  0
 31 32  1  0  0  0  0
 31 45  2  0  0  0  0
 32 33  1  0  0  0  0
 32 41  2  0  0  0  0
 33 34  1  0  0  0  0
 33 35  2  0  0  0  0
 35 36  1  0  0  0  0
 35 37  1  0  0  0  0
 37 38  1  0  0  0  0
 37 39  2  0  0  0  0
 39 40  1  0  0  0  0
 39 41  1  0  0  0  0
 41 42  1  0  0  0  0
 46 47  1  0  0  0  0
 47 48  1  0  0  0  0
 47 49  1  0  0  0  0
 47 50  1  0  0  0  0
M  END
>  <Activity>
4.6777

>  <AM1_dipole>
6.08224

>  <AM1_E>
-115439

>  <AM1_Eele>
-875291

>  <AM1_HF>
-34.1406

>  <AM1_HOMO>
-8.6381

>  <AM1_IP>
8.6381

>  <AM1_LUMO>
-0.46814

>  <diameter>
16

>  <petitjean>
0.5

>  <petitjeanSC>
1

>  <radius>
8

>  <VDistEq>
3.73414

>  <VDistMa>
9.394

>  <weinerPath>
2467

>  <weinerPol>
48

>  <BCUT_PEOE_0>
-2.71189

>  <BCUT_PEOE_1>
-0.615345

>  <BCUT_PEOE_2>
0.629228

>  <BCUT_PEOE_3>
2.65023

>  <BCUT_SLOGP_0>
-2.86001

>  <BCUT_SLOGP_1>
-0.526236

>  <BCUT_SLOGP_2>
0.700058

>  <BCUT_SLOGP_3>
2.50371

>  <BCUT_SMR_0>
-2.43203

>  <BCUT_SMR_1>
-0.41197

>  <BCUT_SMR_2>
0.784063

>  <BCUT_SMR_3>
2.92025

>  <GCUT_PEOE_0>
-0.860566

>  <GCUT_PEOE_1>
-0.417338

>  <GCUT_PEOE_2>
0.0729122

>  <GCUT_PEOE_3>
2.6712

>  <GCUT_SLOGP_0>
-0.976488

>  <GCUT_SLOGP_1>
-0.334983

>  <GCUT_SLOGP_2>
0.135783

>  <GCUT_SLOGP_3>
2.66689

>  <GCUT_SMR_0>
-0.508919

>  <GCUT_SMR_1>
-0.209284

>  <GCUT_SMR_2>
0.182723

>  <GCUT_SMR_3>
2.94395

>  <a_aro>
15

>  <a_count>
50

>  <a_IC>
79.0918

>  <a_ICM>
1.58184

>  <a_nH>
21

>  <b_1rotN>
6

>  <b_1rotR>
0.1875

>  <b_ar>
16

>  <b_count>
53

>  <b_double>
3

>  <b_rotN>
6

>  <b_rotR>
0.1875

>  <b_single>
34

>  <b_triple>
0

>  <chi0v>
16.052

>  <chi0v_C>
13.0246

>  <chi1v>
9.41294

>  <chi1v_C>
5.93739

>  <chiral>
0

>  <chiral_u>
0

>  <nmol>
1

>  <reactive>
0

>  <rings>
4

>  <Weight>
391.427

>  <a_heavy>
29

>  <a_nB>
0

>  <a_nBr>
0

>  <a_nC>
22

>  <a_nCl>
0

>  <a_nF>
0

>  <a_nI>
0

>  <a_nN>
3

>  <a_nO>
4

>  <a_nP>
0

>  <a_nS>
0

>  <b_heavy>
32

>  <chi0>
20.3801

>  <chi0_C>
14.8112

>  <chi1>
14.0797

>  <chi1_C>
8.0244

>  <FCharge>
0

>  <VAdjEq>
0.388286

>  <VAdjMa>
6

>  <zagreb>
154

>  <balabanJ>
1.28235

>  <PEOE_PC+>
2.55724

>  <PEOE_PC->
-2.55724

>  <PEOE_RPC+>
0.115398

>  <PEOE_RPC->
0.140755

>  <PEOE_VSA+0>
105.63

>  <PEOE_VSA+1>
95.9748

>  <PEOE_VSA+2>
0

>  <PEOE_VSA+3>
8.61901

>  <PEOE_VSA+4>
0

>  <PEOE_VSA+5>
34.3576

>  <PEOE_VSA+6>
0

>  <PEOE_VSA-0>
61.2745

>  <PEOE_VSA-1>
36.7647

>  <PEOE_VSA-2>
0

>  <PEOE_VSA-3>
0

>  <PEOE_VSA-4>
0

>  <PEOE_VSA-5>
40.7008

>  <PEOE_VSA-6>
2.64065

>  <PEOE_VSA_FHYD>
0.798687

>  <PEOE_VSA_FNEG>
0.366308

>  <PEOE_VSA_FPNEG>
0.112295

>  <PEOE_VSA_FPOL>
0.201313

>  <PEOE_VSA_FPOS>
0.633692

>  <PEOE_VSA_FPPOS>
0.0890182

>  <PEOE_VSA_HYD>
308.263

>  <PEOE_VSA_NEG>
141.381

>  <PEOE_VSA_PNEG>
43.3414

>  <PEOE_VSA_POL>
77.699

>  <PEOE_VSA_POS>
244.581

>  <PEOE_VSA_PPOS>
34.3576

>  <PC+>
5.131

>  <PC->
-5.133

>  <Q_PC+>
5.131

>  <Q_PC->
-5.133

>  <Q_RPC+>
0.12785

>  <Q_RPC->
0.12858

>  <Q_VSA_FHYD>
0.531834

>  <Q_VSA_FNEG>
0.432421

>  <Q_VSA_FPNEG>
0.155327

>  <Q_VSA_FPOL>
0.468166

>  <Q_VSA_FPOS>
0.567579

>  <Q_VSA_FPPOS>
0.312838

>  <Q_VSA_HYD>
205.268

>  <Q_VSA_NEG>
166.898

>  <Q_VSA_PNEG>
59.9504

>  <Q_VSA_POL>
180.694

>  <Q_VSA_POS>
219.064

>  <Q_VSA_PPOS>
120.744

>  <RPC+>
0.12785

>  <RPC->
0.12858

>  <lip_acc>
7

>  <lip_don>
1

>  <lip_druglike>
1

>  <lip_violation>
0

>  <opr_brigid>
22

>  <opr_leadlike>
1

>  <opr_nring>
4

>  <opr_nrot>
6

>  <opr_violation>
0

>  <E>
102.503

>  <E_ang>
13.4218

>  <E_ele>
28.0043

>  <E_nb>
79.0062

>  <E_oop>
0.0491921

>  <E_sol>
-24.0467

>  <E_stb>
0.212265

>  <E_str>
5.76288

>  <E_strain>
0.00590934

>  <E_tor>
4.05018

>  <E_vdw>
51.0018

>  <E_rele>
0

>  <E_rnb>
-2.84217e-014

>  <E_rsol>
-2.84217e-014

>  <E_rvdw>
0

>  <Kier1>
22.2031

>  <Kier2>
10.08

>  <Kier3>
4.92404

>  <KierA1>
15.4407

>  <KierA2>
6.91129

>  <KierA3>
3.34094

>  <KierFlex>
3.67983

>  <logS>
-4.07997

>  <MNDO_dipole>
7.10181

>  <MNDO_E>
-115719

>  <MNDO_Eele>
-865504

>  <MNDO_HF>
-53.4601

>  <MNDO_HOMO>
-8.65762

>  <MNDO_IP>
8.65762

>  <MNDO_LUMO>
-0.51143

>  <apol>
59.2307

>  <bpol>
32.3673

>  <mr>
10.9202

>  <dipole>
1.81417

>  <dipoleX>
0.467124

>  <dipoleY>
-1.61473

>  <dipoleZ>
0.682401

>  <pmi>
9456.44

>  <pmiX>
7591.57

>  <pmiY>
1068.54

>  <pmiZ>
796.325

>  <rgyr>
4.91517

>  <a_acc>
4

>  <a_acid>
0

>  <a_base>
0

>  <a_don>
1

>  <a_hyd>
19

>  <vsa_acc>
43.2045

>  <vsa_acid>
0

>  <vsa_base>
0

>  <vsa_don>
5.68258

>  <vsa_hyd>
285.408

>  <vsa_other>
34.3576

>  <vsa_pol>
48.8871

>  <PM3_dipole>
6.86352

>  <PM3_E>
-105855

>  <PM3_Eele>
-855631

>  <PM3_HF>
-68.2733

>  <PM3_HOMO>
-8.60241

>  <PM3_IP>
8.60241

>  <PM3_LUMO>
-0.53999

>  <SlogP>
2.3438

>  <SlogP_VSA0>
10.9999

>  <SlogP_VSA1>
22.4538

>  <SlogP_VSA2>
40.6477

>  <SlogP_VSA3>
73.7583

>  <SlogP_VSA4>
54.0956

>  <SlogP_VSA5>
35.3839

>  <SlogP_VSA6>
0

>  <SlogP_VSA7>
163.077

>  <SlogP_VSA8>
0

>  <SlogP_VSA9>
5.24343

>  <SMR>
10.8107

>  <SMR_VSA0>
71.5866

>  <SMR_VSA1>
17.2485

>  <SMR_VSA2>
16.7855

>  <SMR_VSA3>
11.6146

>  <SMR_VSA4>
4.7171

>  <SMR_VSA5>
158.36

>  <SMR_VSA6>
89.9635

>  <SMR_VSA7>
35.3839

>  <ASA>
668.497

>  <ASA+>
263.797

>  <ASA->
238.872

>  <ASA_H>
472.782

>  <ASA_P>
195.715

>  <CASA+>
1353.54

>  <CASA->
1226.13

>  <DASA>
24.9254

>  <DCASA>
127.414

>  <FASA+>
0.394612

>  <FASA->
0.357326

>  <FASA_H>
0.707232

>  <FASA_P>
0.292768

>  <FCASA+>
2.02475

>  <FCASA->
1.83416

>  <VSA>
405.611

>  <TPSA>
82.71

>  <density>
0.751685

>  <vdw_area>
385.962

>  <vdw_vol>
520.732

>  <vsurf_A>
3.25373

>  <vsurf_CP>
0.12153

>  <vsurf_CW1>
2.64718

>  <vsurf_CW2>
2.06002

>  <vsurf_CW3>
1.2946

>  <vsurf_CW4>
0.561301

>  <vsurf_CW5>
0.243072

>  <vsurf_CW6>
0.0769188

>  <vsurf_CW7>
0.00440652

>  <vsurf_CW8>
0

>  <vsurf_D1>
924.75

>  <vsurf_D2>
550.625

>  <vsurf_D3>
414.375

>  <vsurf_D4>
352.625

>  <vsurf_D5>
303.125

>  <vsurf_D6>
237.75

>  <vsurf_D7>
145.5

>  <vsurf_D8>
82.375

>  <vsurf_DD12>
4.06202

>  <vsurf_DD13>
3.77492

>  <vsurf_DD23>
0.5

>  <vsurf_DW12>
5.12348

>  <vsurf_DW13>
0.5

>  <vsurf_DW23>
5.52268

>  <vsurf_EDmin1>
-2.68595

>  <vsurf_EDmin2>
-2.65801

>  <vsurf_EDmin3>
-2.65008

>  <vsurf_EWmin1>
-5.33319

>  <vsurf_EWmin2>
-5.32659

>  <vsurf_EWmin3>
-5.25148

>  <vsurf_G>
1.36982

>  <vsurf_HB1>
323.75

>  <vsurf_HB2>
377.625

>  <vsurf_HB3>
324.625

>  <vsurf_HB4>
118.125

>  <vsurf_HB5>
40.125

>  <vsurf_HB6>
10.875

>  <vsurf_HB7>
1

>  <vsurf_HB8>
0

>  <vsurf_HL1>
0.112217

>  <vsurf_HL2>
0.0361574

>  <vsurf_ID1>
1.02276

>  <vsurf_ID2>
0.99327

>  <vsurf_ID3>
1.04169

>  <vsurf_ID4>
1.16513

>  <vsurf_ID5>
1.34107

>  <vsurf_ID6>
1.72989

>  <vsurf_ID7>
1.19765

>  <vsurf_ID8>
0.924142

>  <vsurf_IW1>
0.0624758

>  <vsurf_IW2>
0.68039

>  <vsurf_IW3>
1.34366

>  <vsurf_IW4>
2.04324

>  <vsurf_IW5>
2.22455

>  <vsurf_IW6>
2.47673

>  <vsurf_IW7>
4.16864

>  <vsurf_IW8>
0

>  <vsurf_R>
1.4415

>  <vsurf_S>
604.057

>  <vsurf_V>
870.75

>  <vsurf_W1>
1433.25

>  <vsurf_W2>
836.875

>  <vsurf_W3>
407.375

>  <vsurf_W4>
135.25

>  <vsurf_W5>
46.5

>  <vsurf_W6>
12.75

>  <vsurf_W7>
1

>  <vsurf_W8>
0

>  <vsurf_Wp1>
1109.5

>  <vsurf_Wp2>
459.25

>  <vsurf_Wp3>
82.75

>  <vsurf_Wp4>
17.125

>  <vsurf_Wp5>
6.375

>  <vsurf_Wp6>
1.875

>  <vsurf_Wp7>
0

>  <vsurf_Wp8>
0

>  <dens>
1.05364

>  <glob>
0.0769978

>  <std_dim1>
4.86971

>  <std_dim2>
1.56743

>  <std_dim3>
1.35127

>  <vol>
371.5

>  <logP(o/w)>
2.076

$$$$
D2.cdx
  MOE2008           3D

 52 55  0  0  0  0  0  0  0  0999 V2000
   -5.2170    6.9470    0.5580 C   0  0  0  0  0  0  0  0  0  0  0  0
   -5.3430    6.0360    1.6040 C   0  0  0  0  0  0  0  0  0  0  0  0
   -6.2710    5.9680    2.1640 H   0  0  0  0  0  0  0  0  0  0  0  0
   -4.2760    5.1970    1.9360 C   0  0  0  0  0  0  0  0  0  0  0  0
   -4.3670    4.4770    2.7420 H   0  0  0  0  0  0  0  0  0  0  0  0
   -3.0930    5.3230    1.1950 C   0  0  0  0  0  0  0  0  0  0  0  0
   -2.9400    6.2450    0.1570 C   0  0  0  0  0  0  0  0  0  0  0  0
   -4.0280    7.0830   -0.1640 C   0  0  0  0  0  0  0  0  0  0  0  0
   -3.9470    7.8190   -0.9580 H   0  0  0  0  0  0  0  0  0  0  0  0
   -1.9070    4.6360    1.3040 N   0  0  0  0  0  0  0  0  0  0  0  0
   -1.7300    3.8990    1.9740 H   0  0  0  0  0  0  0  0  0  0  0  0
   -1.0070    5.0930    0.3780 C   0  0  0  0  0  0  0  0  0  0  0  0
   -0.0170    4.6580    0.3250 H   0  0  0  0  0  0  0  0  0  0  0  0
   -1.6100    6.0980   -0.3580 C   0  0  0  0  0  0  0  0  0  0  0  0
   -0.9870    6.8530   -1.4370 C   0  0  0  0  0  0  0  0  0  0  0  0
    0.4360    6.5370   -1.8490 C   0  0  0  0  0  0  0  0  0  0  0  0
    1.4450    7.2990   -1.2700 N   0  0  0  0  0  0  0  0  0  0  0  0
    2.8430    7.0260   -1.6010 C   0  0  0  0  0  0  0  0  0  0  0  0
    2.9290    6.1630   -2.2680 H   0  0  0  0  0  0  0  0  0  0  0  0
    3.2190    7.9030   -2.1410 H   0  0  0  0  0  0  0  0  0  0  0  0
    3.6780    6.7920   -0.3340 C   0  0  0  0  0  0  0  0  0  0  0  0
    4.7290    6.7110   -0.6180 H   0  0  0  0  0  0  0  0  0  0  0  0
    3.3780    5.8530    0.1460 H   0  0  0  0  0  0  0  0  0  0  0  0
    3.4650    7.8610    0.6580 N   0  0  0  0  0  0  0  0  0  0  0  0
    2.0610    8.1680    0.9570 C   0  0  0  0  0  0  0  0  0  0  0  0
    1.6620    7.3010    1.4980 H   0  0  0  0  0  0  0  0  0  0  0  0
    1.9750    9.0350    1.6180 H   0  0  0  0  0  0  0  0  0  0  0  0
    1.2450    8.4010   -0.3190 C   0  0  0  0  0  0  0  0  0  0  0  0
    1.5820    9.3170   -0.8200 H   0  0  0  0  0  0  0  0  0  0  0  0
    0.1900    8.5320   -0.0660 H   0  0  0  0  0  0  0  0  0  0  0  0
    4.4650    8.5750    1.3130 C   0  0  0  0  0  0  0  0  0  0  0  0
    5.8670    8.1190    1.1870 C   0  0  0  0  0  0  0  0  0  0  0  0
    6.2390    6.8470    1.6360 C   0  0  0  0  0  0  0  0  0  0  0  0
    5.5020    6.1740    2.0660 H   0  0  0  0  0  0  0  0  0  0  0  0
    7.5710    6.4460    1.5340 C   0  0  0  0  0  0  0  0  0  0  0  0
    7.8690    5.4570    1.8740 H   0  0  0  0  0  0  0  0  0  0  0  0
    8.5240    7.3170    1.0040 C   0  0  0  0  0  0  0  0  0  0  0  0
    9.5630    7.0030    0.9290 H   0  0  0  0  0  0  0  0  0  0  0  0
    8.1530    8.5950    0.5800 C   0  0  0  0  0  0  0  0  0  0  0  0
    8.9030    9.2740    0.1810 H   0  0  0  0  0  0  0  0  0  0  0  0
    6.8230    9.0030    0.6770 C   0  0  0  0  0  0  0  0  0  0  0  0
    6.5330   10.0010    0.3580 H   0  0  0  0  0  0  0  0  0  0  0  0
   -1.5510    7.7630   -2.0390 O   0  0  0  0  0  0  0  0  0  0  0  0
    0.6020    5.6190   -2.6440 O   0  0  0  0  0  0  0  0  0  0  0  0
    4.2640    9.5680    2.0070 O   0  0  0  0  0  0  0  0  0  0  0  0
   -6.2550    7.8340    0.2410 O   0  0  0  0  0  0  0  0  0  0  0  0
   -7.4340    7.2480   -0.2080 C   0  0  0  0  0  0  0  0  0  0  0  0
   -8.4230    8.3360   -0.5100 C   0  0  0  0  0  0  0  0  0  0  0  0
   -8.6410    8.9010    0.3990 H   0  0  0  0  0  0  0  0  0  0  0  0
   -9.3520    7.8890   -0.8750 H   0  0  0  0  0  0  0  0  0  0  0  0
   -8.0250    8.9930   -1.2880 H   0  0  0  0  0  0  0  0  0  0  0  0
   -7.6650    6.0550   -0.3410 O   0  0  0  0  0  0  0  0  0  0  0  0
  1  2  1  0  0  0  0
  1  8  2  0  0  0  0
  1 46  1  0  0  0  0
  2  3  1  0  0  0  0
  2  4  2  0  0  0  0
  4  5  1  0  0  0  0
  4  6  1  0  0  0  0
  6  7  2  0  0  0  0
  6 10  1  0  0  0  0
  7  8  1  0  0  0  0
  7 14  1  0  0  0  0
  8  9  1  0  0  0  0
 10 11  1  0  0  0  0
 10 12  1  0  0  0  0
 12 13  1  0  0  0  0
 12 14  2  0  0  0  0
 14 15  1  0  0  0  0
 15 16  1  0  0  0  0
 15 43  2  0  0  0  0
 16 17  1  0  0  0  0
 16 44  2  0  0  0  0
 17 18  1  0  0  0  0
 17 28  1  0  0  0  0
 18 19  1  0  0  0  0
 18 20  1  0  0  0  0
 18 21  1  0  0  0  0
 21 22  1  0  0  0  0
 21 23  1  0  0  0  0
 21 24  1  0  0  0  0
 24 25  1  0  0  0  0
 24 31  1  0  0  0  0
 25 26  1  0  0  0  0
 25 27  1  0  0  0  0
 25 28  1  0  0  0  0
 28 29  1  0  0  0  0
 28 30  1  0  0  0  0
 31 32  1  0  0  0  0
 31 45  2  0  0  0  0
 32 33  1  0  0  0  0
 32 41  2  0  0  0  0
 33 34  1  0  0  0  0
 33 35  2  0  0  0  0
 35 36  1  0  0  0  0
 35 37  1  0  0  0  0
 37 38  1  0  0  0  0
 37 39  2  0  0  0  0
 39 40  1  0  0  0  0
 39 41  1  0  0  0  0
 41 42  1  0  0  0  0
 46 47  1  0  0  0  0
 47 48  1  0  0  0  0
 47 52  2  0  0  0  0
 48 49  1  0  0  0  0
 48 50  1  0  0  0  0
 48 51  1  0  0  0  0
M  END
>  <Activity>
6.0212

>  <AM1_dipole>
4.04459

>  <AM1_E>
-125785

>  <AM1_Eele>
-963436

>  <AM1_HF>
-74.2118

>  <AM1_HOMO>
-8.94295

>  <AM1_IP>
8.94295

>  <AM1_LUMO>
-0.57259

>  <diameter>
17

>  <petitjean>
0.470588

>  <petitjeanSC>
0.888889

>  <radius>
9

>  <VDistEq>
3.83335

>  <VDistMa>
9.58746

>  <weinerPath>
2999

>  <weinerPol>
50

>  <BCUT_PEOE_0>
-2.71189

>  <BCUT_PEOE_1>
-0.632491

>  <BCUT_PEOE_2>
0.656941

>  <BCUT_PEOE_3>
2.65023

>  <BCUT_SLOGP_0>
-2.86001

>  <BCUT_SLOGP_1>
-0.53808

>  <BCUT_SLOGP_2>
0.716996

>  <BCUT_SLOGP_3>
2.50368

>  <BCUT_SMR_0>
-2.43203

>  <BCUT_SMR_1>
-0.422058

>  <BCUT_SMR_2>
0.818798

>  <BCUT_SMR_3>
2.92025

>  <GCUT_PEOE_0>
-0.860525

>  <GCUT_PEOE_1>
-0.432886

>  <GCUT_PEOE_2>
0.080099

>  <GCUT_PEOE_3>
2.67843

>  <GCUT_SLOGP_0>
-0.976492

>  <GCUT_SLOGP_1>
-0.350378

>  <GCUT_SLOGP_2>
0.137692

>  <GCUT_SLOGP_3>
2.67341

>  <GCUT_SMR_0>
-0.508915

>  <GCUT_SMR_1>
-0.216057

>  <GCUT_SMR_2>
0.193051

>  <GCUT_SMR_3>
2.95109

>  <a_aro>
15

>  <a_count>
52

>  <a_IC>
83.7777

>  <a_ICM>
1.61111

>  <a_nH>
21

>  <b_1rotN>
6

>  <b_1rotR>
0.176471

>  <b_ar>
16

>  <b_count>
55

>  <b_double>
4

>  <b_rotN>
7

>  <b_rotR>
0.205882

>  <b_single>
35

>  <b_triple>
0

>  <chi0v>
16.9602

>  <chi0v_C>
13.5246

>  <chi1v>
9.91294

>  <chi1v_C>
6.43739

>  <chiral>
0

>  <chiral_u>
0

>  <nmol>
1

>  <reactive>
0

>  <rings>
4

>  <Weight>
419.437

>  <a_heavy>
31

>  <a_nB>
0

>  <a_nBr>
0

>  <a_nC>
23

>  <a_nCl>
0

>  <a_nF>
0

>  <a_nI>
0

>  <a_nN>
3

>  <a_nO>
5

>  <a_nP>
0

>  <a_nS>
0

>  <b_heavy>
34

>  <chi0>
21.9575

>  <chi0_C>
15.3885

>  <chi1>
14.9356

>  <chi1_C>
8.60176

>  <FCharge>
0

>  <VAdjEq>
0.368752

>  <VAdjMa>
6.08746

>  <zagreb>
164

>  <balabanJ>
1.27909

>  <PEOE_PC+>
2.75088

>  <PEOE_PC->
-2.75088

>  <PEOE_RPC+>
0.107274

>  <PEOE_RPC->
0.130847

>  <PEOE_VSA+0>
112.176

>  <PEOE_VSA+1>
83.1786

>  <PEOE_VSA+2>
0

>  <PEOE_VSA+3>
8.61901

>  <PEOE_VSA+4>
0

>  <PEOE_VSA+5>
49.0661

>  <PEOE_VSA+6>
0

>  <PEOE_VSA-0>
61.2745

>  <PEOE_VSA-1>
36.7647

>  <PEOE_VSA-2>
0

>  <PEOE_VSA-3>
0

>  <PEOE_VSA-4>
0

>  <PEOE_VSA-5>
56.7714

>  <PEOE_VSA-6>
0.136891

>  <PEOE_VSA_FHYD>
0.74025

>  <PEOE_VSA_FNEG>
0.379786

>  <PEOE_VSA_FPNEG>
0.139486

>  <PEOE_VSA_FPOL>
0.25975

>  <PEOE_VSA_FPOS>
0.620214

>  <PEOE_VSA_FPPOS>
0.120264

>  <PEOE_VSA_HYD>
302.013

>  <PEOE_VSA_NEG>
154.948

>  <PEOE_VSA_PNEG>
56.9083

>  <PEOE_VSA_POL>
105.974

>  <PEOE_VSA_POS>
253.039

>  <PEOE_VSA_PPOS>
49.0661

>  <PC+>
5.571

>  <PC->
-5.572

>  <Q_PC+>
5.571

>  <Q_PC->
-5.572

>  <Q_RPC+>
0.118291

>  <Q_RPC->
0.118449

>  <Q_VSA_FHYD>
0.549074

>  <Q_VSA_FNEG>
0.44233

>  <Q_VSA_FPNEG>
0.180195

>  <Q_VSA_FPOL>
0.450926

>  <Q_VSA_FPOS>
0.55767

>  <Q_VSA_FPPOS>
0.27073

>  <Q_VSA_HYD>
224.015

>  <Q_VSA_NEG>
180.465

>  <Q_VSA_PNEG>
73.5174

>  <Q_VSA_POL>
183.972

>  <Q_VSA_POS>
227.522

>  <Q_VSA_PPOS>
110.454

>  <RPC+>
0.118291

>  <RPC->
0.118449

>  <lip_acc>
8

>  <lip_don>
1

>  <lip_druglike>
1

>  <lip_violation>
0

>  <opr_brigid>
22

>  <opr_leadlike>
1

>  <opr_nring>
4

>  <opr_nrot>
6

>  <opr_violation>
0

>  <E>
102.51

>  <E_ang>
13.3248

>  <E_ele>
28.2497

>  <E_nb>
77.8099

>  <E_oop>
0.0754671

>  <E_sol>
-22.1456

>  <E_stb>
-0.177006

>  <E_str>
6.51684

>  <E_strain>
0.00605829

>  <E_tor>
4.96015

>  <E_vdw>
49.5603

>  <E_rele>
0

>  <E_rnb>
0

>  <E_rsol>
0

>  <E_rvdw>
0

>  <Kier1>
24.1349

>  <Kier2>
10.9505

>  <Kier3>
5.74219

>  <KierA1>
16.6498

>  <KierA2>
7.45297

>  <KierA3>
3.86956

>  <KierFlex>
4.00291

>  <logS>
-4.38311

>  <MNDO_dipole>
4.75065

>  <MNDO_E>
-126102

>  <MNDO_Eele>
-953711

>  <MNDO_HF>
-93.7521

>  <MNDO_HOMO>
-8.94341

>  <MNDO_IP>
8.94341

>  <MNDO_LUMO>
-0.59469

>  <apol>
61.7927

>  <bpol>
33.3253

>  <mr>
11.4583

>  <dipole>
1.11819

>  <dipoleX>
0.756837

>  <dipoleY>
-0.421109

>  <dipoleZ>
0.70725

>  <pmi>
11391.1

>  <pmiX>
10064.2

>  <pmiY>
661.014

>  <pmiZ>
665.85

>  <rgyr>
5.21134

>  <a_acc>
4

>  <a_acid>
0

>  <a_base>
0

>  <a_don>
1

>  <a_hyd>
19

>  <vsa_acc>
54.2677

>  <vsa_acid>
0

>  <vsa_base>
0

>  <vsa_don>
5.68258

>  <vsa_hyd>
279.158

>  <vsa_other>
51.5698

>  <vsa_pol>
59.9503

>  <PM3_dipole>
4.47125

>  <PM3_E>
-115370

>  <PM3_Eele>
-957900

>  <PM3_HF>
-95.1167

>  <PM3_HOMO>
-8.91295

>  <PM3_IP>
8.91295

>  <PM3_LUMO>
-0.66931

>  <SlogP>
2.2605

>  <SlogP_VSA0>
10.9999

>  <SlogP_VSA1>
30.1993

>  <SlogP_VSA2>
64.51

>  <SlogP_VSA3>
73.7583

>  <SlogP_VSA4>
54.0956

>  <SlogP_VSA5>
0

>  <SlogP_VSA6>
0

>  <SlogP_VSA7>
163.077

>  <SlogP_VSA8>
0

>  <SlogP_VSA9>
38.5694

>  <SMR>
11.2864

>  <SMR_VSA0>
95.4489

>  <SMR_VSA1>
17.2485

>  <SMR_VSA2>
16.7855

>  <SMR_VSA3>
11.6146

>  <SMR_VSA4>
4.7171

>  <SMR_VSA5>
158.36

>  <SMR_VSA6>
97.709

>  <SMR_VSA7>
33.326

>  <ASA>
697.556

>  <ASA+>
271.276

>  <ASA->
262.228

>  <ASA_H>
494.681

>  <ASA_P>
202.875

>  <CASA+>
1511.28

>  <CASA->
1461.13

>  <DASA>
9.04822

>  <DCASA>
50.1454

>  <FASA+>
0.388896

>  <FASA->
0.375924

>  <FASA_H>
0.709163

>  <FASA_P>
0.290837

>  <FCASA+>
2.16654

>  <FCASA->
2.09465

>  <VSA>
429.836

>  <TPSA>
99.78

>  <density>
0.767721

>  <vdw_area>
407.987

>  <vdw_vol>
546.341

>  <vsurf_A>
2.94721

>  <vsurf_CP>
0.10068

>  <vsurf_CW1>
2.65182

>  <vsurf_CW2>
2.12417

>  <vsurf_CW3>
1.39679

>  <vsurf_CW4>
0.660775

>  <vsurf_CW5>
0.251993

>  <vsurf_CW6>
0.0728554

>  <vsurf_CW7>
0.00222853

>  <vsurf_CW8>
0

>  <vsurf_D1>
904.75

>  <vsurf_D2>
532.375

>  <vsurf_D3>
399.75

>  <vsurf_D4>
341.75

>  <vsurf_D5>
290.875

>  <vsurf_D6>
222

>  <vsurf_D7>
131.625

>  <vsurf_D8>
71.25

>  <vsurf_DD12>
0.707107

>  <vsurf_DD13>
0.5

>  <vsurf_DD23>
0.5

>  <vsurf_DW12>
5.33854

>  <vsurf_DW13>
4.89898

>  <vsurf_DW23>
0.707107

>  <vsurf_EDmin1>
-2.79397

>  <vsurf_EDmin2>
-2.77752

>  <vsurf_EDmin3>
-2.76814

>  <vsurf_EWmin1>
-5.30992

>  <vsurf_EWmin2>
-5.26161

>  <vsurf_EWmin3>
-5.1682

>  <vsurf_G>
1.39194

>  <vsurf_HB1>
402.75

>  <vsurf_HB2>
468.25

>  <vsurf_HB3>
390.125

>  <vsurf_HB4>
144.125

>  <vsurf_HB5>
41.375

>  <vsurf_HB6>
10.75

>  <vsurf_HB7>
0.75

>  <vsurf_HB8>
0

>  <vsurf_HL1>
0.1207

>  <vsurf_HL2>
0.0358449

>  <vsurf_ID1>
1.04169

>  <vsurf_ID2>
1.00635

>  <vsurf_ID3>
1.02773

>  <vsurf_ID4>
1.25496

>  <vsurf_ID5>
1.51009

>  <vsurf_ID6>
2.32303

>  <vsurf_ID7>
1.59874

>  <vsurf_ID8>
1.36053

>  <vsurf_IW1>
0.239061

>  <vsurf_IW2>
0.892253

>  <vsurf_IW3>
1.44567

>  <vsurf_IW4>
1.97712

>  <vsurf_IW5>
1.92726

>  <vsurf_IW6>
2.11849

>  <vsurf_IW7>
4.15886

>  <vsurf_IW8>
0

>  <vsurf_R>
1.44197

>  <vsurf_S>
634.2

>  <vsurf_V>
914.5

>  <vsurf_W1>
1522.63

>  <vsurf_W2>
928.625

>  <vsurf_W3>
476.5

>  <vsurf_W4>
160.5

>  <vsurf_W5>
48.25

>  <vsurf_W6>
12.25

>  <vsurf_W7>
0.75

>  <vsurf_W8>
0

>  <vsurf_Wp1>
1119.88

>  <vsurf_Wp2>
460.375

>  <vsurf_Wp3>
86.375

>  <vsurf_Wp4>
16.375

>  <vsurf_Wp5>
6.875

>  <vsurf_Wp6>
1.5

>  <vsurf_Wp7>
0

>  <vsurf_Wp8>
0

>  <dens>
1.07273

>  <glob>
0.0504227

>  <std_dim1>
5.20343

>  <std_dim2>
1.51163

>  <std_dim3>
1.16843

>  <vol>
391

>  <logP(o/w)>
2.053

$$$$
D2.cdx
  MOE2008           3D

 46 49  0  0  0  0  0  0  0  0999 V2000
   -5.9800    1.6180   -1.3970 C   0  0  0  0  0  0  0  0  0  0  0  0
   -6.8340    2.2900   -1.4030 H   0  0  0  0  0  0  0  0  0  0  0  0
   -6.0020    0.4740   -2.1840 C   0  0  0  0  0  0  0  0  0  0  0  0
   -4.9340   -0.4220   -2.2100 C   0  0  0  0  0  0  0  0  0  0  0  0
   -4.9740   -1.3110   -2.8290 H   0  0  0  0  0  0  0  0  0  0  0  0
   -3.8260   -0.1220   -1.4050 C   0  0  0  0  0  0  0  0  0  0  0  0
   -3.7620    1.0170   -0.5980 C   0  0  0  0  0  0  0  0  0  0  0  0
   -4.8650    1.9020   -0.5990 C   0  0  0  0  0  0  0  0  0  0  0  0
   -4.8540    2.7970    0.0170 H   0  0  0  0  0  0  0  0  0  0  0  0
   -2.6520   -0.8140   -1.2250 N   0  0  0  0  0  0  0  0  0  0  0  0
   -2.4240   -1.6870   -1.6820 H   0  0  0  0  0  0  0  0  0  0  0  0
   -1.8430   -0.1510   -0.3400 C   0  0  0  0  0  0  0  0  0  0  0  0
   -0.8750   -0.5620   -0.0800 H   0  0  0  0  0  0  0  0  0  0  0  0
   -2.4980    0.9920    0.0830 C   0  0  0  0  0  0  0  0  0  0  0  0
   -1.9820    1.9630    1.0420 C   0  0  0  0  0  0  0  0  0  0  0  0
   -0.6210    1.7520    1.6860 C   0  0  0  0  0  0  0  0  0  0  0  0
    0.4470    2.4940    1.1820 N   0  0  0  0  0  0  0  0  0  0  0  0
    1.7830    2.2880    1.7460 C   0  0  0  0  0  0  0  0  0  0  0  0
    1.8870    2.9990    2.5750 H   0  0  0  0  0  0  0  0  0  0  0  0
    1.8630    1.2790    2.1650 H   0  0  0  0  0  0  0  0  0  0  0  0
    2.8880    2.5190    0.7110 C   0  0  0  0  0  0  0  0  0  0  0  0
    2.8010    1.7750   -0.0890 H   0  0  0  0  0  0  0  0  0  0  0  0
    3.8690    2.4020    1.1820 H   0  0  0  0  0  0  0  0  0  0  0  0
    2.7950    3.8420    0.0750 N   0  0  0  0  0  0  0  0  0  0  0  0
    1.4820    4.4920    0.0950 C   0  0  0  0  0  0  0  0  0  0  0  0
    1.4530    5.1070    1.0020 H   0  0  0  0  0  0  0  0  0  0  0  0
    1.3850    5.1660   -0.7630 H   0  0  0  0  0  0  0  0  0  0  0  0
    0.3250    3.4870    0.1070 C   0  0  0  0  0  0  0  0  0  0  0  0
    0.3050    2.9250   -0.8340 H   0  0  0  0  0  0  0  0  0  0  0  0
   -0.6250    4.0210    0.1940 H   0  0  0  0  0  0  0  0  0  0  0  0
    3.8620    4.5230   -0.5090 C   0  0  0  0  0  0  0  0  0  0  0  0
    5.1570    3.8220   -0.6610 C   0  0  0  0  0  0  0  0  0  0  0  0
    5.2530    2.6660   -1.4430 C   0  0  0  0  0  0  0  0  0  0  0  0
    4.3790    2.2620   -1.9470 H   0  0  0  0  0  0  0  0  0  0  0  0
    6.4890    2.0360   -1.5880 C   0  0  0  0  0  0  0  0  0  0  0  0
    6.5740    1.1350   -2.1910 H   0  0  0  0  0  0  0  0  0  0  0  0
    7.6210    2.5680   -0.9680 C   0  0  0  0  0  0  0  0  0  0  0  0
    8.5840    2.0760   -1.0860 H   0  0  0  0  0  0  0  0  0  0  0  0
    7.5260    3.7350   -0.2080 C   0  0  0  0  0  0  0  0  0  0  0  0
    8.4130    4.1520    0.2610 H   0  0  0  0  0  0  0  0  0  0  0  0
    6.2930    4.3700   -0.0580 C   0  0  0  0  0  0  0  0  0  0  0  0
    6.2210    5.2860    0.5240 H   0  0  0  0  0  0  0  0  0  0  0  0
   -2.6030    2.9690    1.3760 O   0  0  0  0  0  0  0  0  0  0  0  0
   -0.5470    0.9330    2.5960 O   0  0  0  0  0  0  0  0  0  0  0  0
    3.8010    5.6840   -0.9050 O   0  0  0  0  0  0  0  0  0  0  0  0
   -7.0810    0.2220   -2.9400 F   0  0  0  0  0  0  0  0  0  0  0  0
  1  2  1  0  0  0  0
  1  3  1  0  0  0  0
  1  8  2  0  0  0  0
  3  4  2  0  0  0  0
  3 46  1  0  0  0  0
  4  5  1  0  0  0  0
  4  6  1  0  0  0  0
  6  7  2  0  0  0  0
  6 10  1  0  0  0  0
  7  8  1  0  0  0  0
  7 14  1  0  0  0  0
  8  9  1  0  0  0  0
 10 11  1  0  0  0  0
 10 12  1  0  0  0  0
 12 13  1  0  0  0  0
 12 14  2  0  0  0  0
 14 15  1  0  0  0  0
 15 16  1  0  0  0  0
 15 43  2  0  0  0  0
 16 17  1  0  0  0  0
 16 44  2  0  0  0  0
 17 18  1  0  0  0  0
 17 28  1  0  0  0  0
 18 19  1  0  0  0  0
 18 20  1  0  0  0  0
 18 21  1  0  0  0  0
 21 22  1  0  0  0  0
 21 23  1  0  0  0  0
 21 24  1  0  0  0  0
 24 25  1  0  0  0  0
 24 31  1  0  0  0  0
 25 26  1  0  0  0  0
 25 27  1  0  0  0  0
 25 28  1  0  0  0  0
 28 29  1  0  0  0  0
 28 30  1  0  0  0  0
 31 32  1  0  0  0  0
 31 45  2  0  0  0  0
 32 33  1  0  0  0  0
 32 41  2  0  0  0  0
 33 34  1  0  0  0  0
 33 35  2  0  0  0  0
 35 36  1  0  0  0  0
 35 37  1  0  0  0  0
 37 38  1  0  0  0  0
 37 39  2  0  0  0  0
 39 40  1  0  0  0  0
 39 41  1  0  0  0  0
 41 42  1  0  0  0  0
M  END
>  <Activity>
7.6757

>  <AM1_dipole>
5.65426

>  <AM1_E>
-115336

>  <AM1_Eele>
-824065

>  <AM1_HF>
-41.2911

>  <AM1_HOMO>
-8.94565

>  <AM1_IP>
8.94565

>  <AM1_LUMO>
-0.67739

>  <diameter>
16

>  <petitjean>
0.5

>  <petitjeanSC>
1

>  <radius>
8

>  <VDistEq>
3.70984

>  <VDistMa>
9.28757

>  <weinerPath>
2249

>  <weinerPol>
46

>  <BCUT_PEOE_0>
-2.71189

>  <BCUT_PEOE_1>
-0.642184

>  <BCUT_PEOE_2>
0.652332

>  <BCUT_PEOE_3>
2.65023

>  <BCUT_SLOGP_0>
-2.86001

>  <BCUT_SLOGP_1>
-0.53808

>  <BCUT_SLOGP_2>
0.796379

>  <BCUT_SLOGP_3>
2.50338

>  <BCUT_SMR_0>
-2.43203

>  <BCUT_SMR_1>
-0.433099

>  <BCUT_SMR_2>
0.826252

>  <BCUT_SMR_3>
2.92024

>  <GCUT_PEOE_0>
-0.859968

>  <GCUT_PEOE_1>
-0.41409

>  <GCUT_PEOE_2>
0.080099

>  <GCUT_PEOE_3>
2.65022

>  <GCUT_SLOGP_0>
-0.976485

>  <GCUT_SLOGP_1>
-0.335877

>  <GCUT_SLOGP_2>
0.164454

>  <GCUT_SLOGP_3>
2.62919

>  <GCUT_SMR_0>
-0.508912

>  <GCUT_SMR_1>
-0.216057

>  <GCUT_SMR_2>
0.193051

>  <GCUT_SMR_3>
2.92013

>  <a_aro>
15

>  <a_count>
46

>  <a_IC>
77.2768

>  <a_ICM>
1.67993

>  <a_nH>
18

>  <b_1rotN>
5

>  <b_1rotR>
0.16129

>  <b_ar>
16

>  <b_count>
49

>  <b_double>
3

>  <b_rotN>
5

>  <b_rotR>
0.16129

>  <b_single>
30

>  <b_triple>
0

>  <chi0v>
15.0217

>  <chi0v_C>
12.0246

>  <chi1v>
8.98955

>  <chi1v_C>
5.93739

>  <chiral>
0

>  <chiral_u>
0

>  <nmol>
1

>  <reactive>
0

>  <rings>
4

>  <Weight>
379.391

>  <a_heavy>
28

>  <a_nB>
0

>  <a_nBr>
0

>  <a_nC>
21

>  <a_nCl>
0

>  <a_nF>
1

>  <a_nI>
0

>  <a_nN>
3

>  <a_nO>
3

>  <a_nP>
0

>  <a_nS>
0

>  <b_heavy>
31

>  <chi0>
19.673

>  <chi0_C>
13.8112

>  <chi1>
13.5417

>  <chi1_C>
8.0244

>  <FCharge>
0

>  <VAdjEq>
0.398935

>  <VAdjMa>
5.9542

>  <zagreb>
150

>  <balabanJ>
1.27201

>  <PEOE_PC+>
2.40524

>  <PEOE_PC->
-2.40524

>  <PEOE_RPC+>
0.12269

>  <PEOE_RPC->
0.149621

>  <PEOE_VSA+0>
80.6318

>  <PEOE_VSA+1>
74.7201

>  <PEOE_VSA+2>
9.02085

>  <PEOE_VSA+3>
8.61901

>  <PEOE_VSA+4>
0

>  <PEOE_VSA+5>
34.3576

>  <PEOE_VSA+6>
0

>  <PEOE_VSA-0>
61.2745

>  <PEOE_VSA-1>
36.7647

>  <PEOE_VSA-2>
0

>  <PEOE_VSA-3>
0

>  <PEOE_VSA-4>
11.9086

>  <PEOE_VSA-5>
40.7008

>  <PEOE_VSA-6>
0.136891

>  <PEOE_VSA_FHYD>
0.756785

>  <PEOE_VSA_FNEG>
0.42103

>  <PEOE_VSA_FPNEG>
0.14728

>  <PEOE_VSA_FPOL>
0.243215

>  <PEOE_VSA_FPOS>
0.57897

>  <PEOE_VSA_FPPOS>
0.0959347

>  <PEOE_VSA_HYD>
271.031

>  <PEOE_VSA_NEG>
150.786

>  <PEOE_VSA_PNEG>
52.7463

>  <PEOE_VSA_POL>
87.1039

>  <PEOE_VSA_POS>
207.349

>  <PEOE_VSA_PPOS>
34.3576

>  <PC+>
4.959

>  <PC->
-4.96

>  <Q_PC+>
4.959

>  <Q_PC->
-4.96

>  <Q_RPC+>
0.132285

>  <Q_RPC->
0.133065

>  <Q_VSA_FHYD>
0.572249

>  <Q_VSA_FNEG>
0.49228

>  <Q_VSA_FPNEG>
0.160405

>  <Q_VSA_FPOL>
0.427751

>  <Q_VSA_FPOS>
0.50772

>  <Q_VSA_FPPOS>
0.267346

>  <Q_VSA_HYD>
204.942

>  <Q_VSA_NEG>
176.303

>  <Q_VSA_PNEG>
57.4467

>  <Q_VSA_POL>
153.193

>  <Q_VSA_POS>
181.832

>  <Q_VSA_PPOS>
95.7459

>  <RPC+>
0.132285

>  <RPC->
0.133065

>  <lip_acc>
6

>  <lip_don>
1

>  <lip_druglike>
1

>  <lip_violation>
0

>  <opr_brigid>
22

>  <opr_leadlike>
1

>  <opr_nring>
4

>  <opr_nrot>
5

>  <opr_violation>
0

>  <E>
91.9641

>  <E_ang>
6.98563

>  <E_ele>
29.789

>  <E_nb>
74.7301

>  <E_oop>
0.0438065

>  <E_sol>
-19.7863

>  <E_stb>
0.375768

>  <E_str>
5.93174

>  <E_strain>
0.0046674

>  <E_tor>
3.89709

>  <E_vdw>
44.941

>  <E_rele>
0

>  <E_rnb>
0

>  <E_rsol>
0

>  <E_rvdw>
0

>  <Kier1>
21.2404

>  <Kier2>
9.42769

>  <Kier3>
4.69444

>  <KierA1>
14.4569

>  <KierA2>
6.31723

>  <KierA3>
3.11071

>  <KierFlex>
3.26171

>  <logS>
-4.32457

>  <MNDO_dipole>
6.42521

>  <MNDO_E>
-115419

>  <MNDO_Eele>
-817903

>  <MNDO_HF>
-61.7889

>  <MNDO_HOMO>
-9.0152

>  <MNDO_IP>
9.0152

>  <MNDO_LUMO>
-0.73992

>  <apol>
55.2253

>  <bpol>
28.3747

>  <mr>
10.3492

>  <dipole>
1.5695

>  <dipoleX>
0.986406

>  <dipoleY>
-1.13495

>  <dipoleZ>
-0.449698

>  <pmi>
8993.2

>  <pmiX>
7190.33

>  <pmiY>
1105.1

>  <pmiZ>
697.767

>  <rgyr>
4.86871

>  <a_acc>
3

>  <a_acid>
0

>  <a_base>
0

>  <a_don>
1

>  <a_hyd>
19

>  <vsa_acc>
40.7008

>  <vsa_acid>
0

>  <vsa_base>
0

>  <vsa_don>
5.68258

>  <vsa_hyd>
262.22

>  <vsa_other>
34.3576

>  <vsa_pol>
46.3833

>  <PM3_dipole>
6.00693

>  <PM3_E>
-105441

>  <PM3_Eele>
-805530

>  <PM3_HF>
-74.788

>  <PM3_HOMO>
-9.01706

>  <PM3_IP>
9.01706

>  <PM3_LUMO>
-0.75166

>  <SlogP>
2.4743

>  <SlogP_VSA0>
0

>  <SlogP_VSA1>
22.4538

>  <SlogP_VSA2>
49.7688

>  <SlogP_VSA3>
73.7583

>  <SlogP_VSA4>
54.0956

>  <SlogP_VSA5>
0

>  <SlogP_VSA6>
0

>  <SlogP_VSA7>
163.077

>  <SlogP_VSA8>
0

>  <SlogP_VSA9>
14.9601

>  <SMR>
10.1513

>  <SMR_VSA0>
71.5866

>  <SMR_VSA1>
21.2087

>  <SMR_VSA2>
25.9065

>  <SMR_VSA3>
6.37115

>  <SMR_VSA4>
4.7171

>  <SMR_VSA5>
158.36

>  <SMR_VSA6>
89.9635

>  <SMR_VSA7>
0

>  <ASA>
633.291

>  <ASA+>
248.62

>  <ASA->
274.161

>  <ASA_H>
476.179

>  <ASA_P>
157.112

>  <CASA+>
1232.91

>  <CASA->
1359.84

>  <DASA>
25.5412

>  <DCASA>
126.933

>  <FASA+>
0.392584

>  <FASA->
0.432915

>  <FASA_H>
0.751912

>  <FASA_P>
0.248088

>  <FCASA+>
1.94682

>  <FCASA->
2.14726

>  <VSA>
384.282

>  <TPSA>
73.48

>  <density>
0.776193

>  <vdw_area>
358.135

>  <vdw_vol>
488.784

>  <vsurf_A>
2.97056

>  <vsurf_CP>
0.135695

>  <vsurf_CW1>
2.71505

>  <vsurf_CW2>
2.29608

>  <vsurf_CW3>
1.57216

>  <vsurf_CW4>
0.594858

>  <vsurf_CW5>
0.205121

>  <vsurf_CW6>
0.0659646

>  <vsurf_CW7>
0.00457698

>  <vsurf_CW8>
0

>  <vsurf_D1>
824.5

>  <vsurf_D2>
489.25

>  <vsurf_D3>
358

>  <vsurf_D4>
295.75

>  <vsurf_D5>
249.25

>  <vsurf_D6>
200.25

>  <vsurf_D7>
120.25

>  <vsurf_D8>
72.625

>  <vsurf_DD12>
0.5

>  <vsurf_DD13>
4.63681

>  <vsurf_DD23>
4.38748

>  <vsurf_DW12>
5.24404

>  <vsurf_DW13>
0.5

>  <vsurf_DW23>
5.59017

>  <vsurf_EDmin1>
-2.74883

>  <vsurf_EDmin2>
-2.67026

>  <vsurf_EDmin3>
-2.65798

>  <vsurf_EWmin1>
-5.42619

>  <vsurf_EWmin2>
-5.39839

>  <vsurf_EWmin3>
-5.30974

>  <vsurf_G>
1.34815

>  <vsurf_HB1>
367.75

>  <vsurf_HB2>
438.875

>  <vsurf_HB3>
360.875

>  <vsurf_HB4>
107.875

>  <vsurf_HB5>
30.875

>  <vsurf_HB6>
8.25

>  <vsurf_HB7>
0.875

>  <vsurf_HB8>
0

>  <vsurf_HL1>
0.103701

>  <vsurf_HL2>
0.0325444

>  <vsurf_ID1>
1.34801

>  <vsurf_ID2>
1.33212

>  <vsurf_ID3>
1.59344

>  <vsurf_ID4>
2.06261

>  <vsurf_ID5>
2.561

>  <vsurf_ID6>
2.72099

>  <vsurf_ID7>
1.73196

>  <vsurf_ID8>
0.974865

>  <vsurf_IW1>
0.126725

>  <vsurf_IW2>
1.05682

>  <vsurf_IW3>
1.53958

>  <vsurf_IW4>
1.64144

>  <vsurf_IW5>
2.05434

>  <vsurf_IW6>
2.55384

>  <vsurf_IW7>
4.20326

>  <vsurf_IW8>
0

>  <vsurf_R>
1.43273

>  <vsurf_S>
568.844

>  <vsurf_V>
815

>  <vsurf_W1>
1416.5

>  <vsurf_W2>
888.125

>  <vsurf_W3>
441.25

>  <vsurf_W4>
124.625

>  <vsurf_W5>
37.125

>  <vsurf_W6>
9.625

>  <vsurf_W7>
0.875

>  <vsurf_W8>
0

>  <vsurf_Wp1>
1048.75

>  <vsurf_Wp2>
449.25

>  <vsurf_Wp3>
80.375

>  <vsurf_Wp4>
16.75

>  <vsurf_Wp5>
6.25

>  <vsurf_Wp6>
1.375

>  <vsurf_Wp7>
0

>  <vsurf_Wp8>
0

>  <dens>
1.08708

>  <glob>
0.0668778

>  <std_dim1>
4.52115

>  <std_dim2>
1.58189

>  <std_dim3>
1.1692

>  <vol>
349

>  <logP(o/w)>
2.273

$$$$
D2.cdx
  MOE2008           3D

 46 49  0  0  0  0  0  0  0  0999 V2000
   -6.0100   -1.1630   -1.0330 C   0  0  0  0  0  0  0  0  0  0  0  0
   -6.8110   -0.4430   -0.8790 H   0  0  0  0  0  0  0  0  0  0  0  0
   -6.1130   -2.1280   -2.0310 C   0  0  0  0  0  0  0  0  0  0  0  0
   -5.0970   -3.0650   -2.2450 C   0  0  0  0  0  0  0  0  0  0  0  0
   -5.1800   -3.8180   -3.0210 H   0  0  0  0  0  0  0  0  0  0  0  0
   -3.9690   -2.9940   -1.4150 C   0  0  0  0  0  0  0  0  0  0  0  0
   -3.8290   -2.0410   -0.4040 C   0  0  0  0  0  0  0  0  0  0  0  0
   -4.8740   -1.1090   -0.2150 C   0  0  0  0  0  0  0  0  0  0  0  0
   -4.8040   -0.3530    0.5640 H   0  0  0  0  0  0  0  0  0  0  0  0
   -2.8380   -3.7760   -1.3930 N   0  0  0  0  0  0  0  0  0  0  0  0
   -2.6680   -4.5550   -2.0160 H   0  0  0  0  0  0  0  0  0  0  0  0
   -1.9850   -3.3490   -0.4110 C   0  0  0  0  0  0  0  0  0  0  0  0
   -1.0430   -3.8590   -0.2530 H   0  0  0  0  0  0  0  0  0  0  0  0
   -2.5660   -2.2720    0.2360 C   0  0  0  0  0  0  0  0  0  0  0  0
   -1.9850   -1.5370    1.3540 C   0  0  0  0  0  0  0  0  0  0  0  0
   -0.6330   -1.9460    1.9150 C   0  0  0  0  0  0  0  0  0  0  0  0
    0.4760   -1.2020    1.5130 N   0  0  0  0  0  0  0  0  0  0  0  0
    1.8040   -1.5900    1.9920 C   0  0  0  0  0  0  0  0  0  0  0  0
    1.9790   -1.0310    2.9190 H   0  0  0  0  0  0  0  0  0  0  0  0
    1.8190   -2.6560    2.2420 H   0  0  0  0  0  0  0  0  0  0  0  0
    2.9000   -1.2730    0.9690 C   0  0  0  0  0  0  0  0  0  0  0  0
    2.7390   -1.8720    0.0650 H   0  0  0  0  0  0  0  0  0  0  0  0
    3.8800   -1.5310    1.3820 H   0  0  0  0  0  0  0  0  0  0  0  0
    2.8910    0.1380    0.5540 N   0  0  0  0  0  0  0  0  0  0  0  0
    1.6350    0.8700    0.7340 C   0  0  0  0  0  0  0  0  0  0  0  0
    1.6790    1.3250    1.7310 H   0  0  0  0  0  0  0  0  0  0  0  0
    1.5680    1.6860    0.0050 H   0  0  0  0  0  0  0  0  0  0  0  0
    0.4030   -0.0340    0.6250 C   0  0  0  0  0  0  0  0  0  0  0  0
    0.3130   -0.4240   -0.3960 H   0  0  0  0  0  0  0  0  0  0  0  0
   -0.5000    0.5450    0.8400 H   0  0  0  0  0  0  0  0  0  0  0  0
    3.9900    0.8240    0.0370 C   0  0  0  0  0  0  0  0  0  0  0  0
    5.2210    0.0640   -0.2740 C   0  0  0  0  0  0  0  0  0  0  0  0
    5.2060   -0.9530   -1.2340 C   0  0  0  0  0  0  0  0  0  0  0  0
    4.2900   -1.2050   -1.7620 H   0  0  0  0  0  0  0  0  0  0  0  0
    6.3840   -1.6400   -1.5260 C   0  0  0  0  0  0  0  0  0  0  0  0
    6.3830   -2.4340   -2.2680 H   0  0  0  0  0  0  0  0  0  0  0  0
    7.5710   -1.3000   -0.8730 C   0  0  0  0  0  0  0  0  0  0  0  0
    8.4890   -1.8340   -1.1050 H   0  0  0  0  0  0  0  0  0  0  0  0
    7.5870   -0.2670    0.0670 C   0  0  0  0  0  0  0  0  0  0  0  0
    8.5160    0.0020    0.5620 H   0  0  0  0  0  0  0  0  0  0  0  0
    6.4120    0.4230    0.3640 C   0  0  0  0  0  0  0  0  0  0  0  0
    6.4270    1.2350    1.0870 H   0  0  0  0  0  0  0  0  0  0  0  0
   -2.5400   -0.5790    1.8880 O   0  0  0  0  0  0  0  0  0  0  0  0
   -0.6020   -2.9110    2.6710 O   0  0  0  0  0  0  0  0  0  0  0  0
    4.0070    2.0340   -0.1720 O   0  0  0  0  0  0  0  0  0  0  0  0
   -7.5200   -2.1720   -3.0250 Cl  0  0  0  0  0  0  0  0  0  0  0  0
  1  2  1  0  0  0  0
  1  3  1  0  0  0  0
  1  8  2  0  0  0  0
  3  4  2  0  0  0  0
  3 46  1  0  0  0  0
  4  5  1  0  0  0  0
  4  6  1  0  0  0  0
  6  7  2  0  0  0  0
  6 10  1  0  0  0  0
  7  8  1  0  0  0  0
  7 14  1  0  0  0  0
  8  9  1  0  0  0  0
 10 11  1  0  0  0  0
 10 12  1  0  0  0  0
 12 13  1  0  0  0  0
 12 14  2  0  0  0  0
 14 15  1  0  0  0  0
 15 16  1  0  0  0  0
 15 43  2  0  0  0  0
 16 17  1  0  0  0  0
 16 44  2  0  0  0  0
 17 18  1  0  0  0  0
 17 28  1  0  0  0  0
 18 19  1  0  0  0  0
 18 20  1  0  0  0  0
 18 21  1  0  0  0  0
 21 22  1  0  0  0  0
 21 23  1  0  0  0  0
 21 24  1  0  0  0  0
 24 25  1  0  0  0  0
 24 31  1  0  0  0  0
 25 26  1  0  0  0  0
 25 27  1  0  0  0  0
 25 28  1  0  0  0  0
 28 29  1  0  0  0  0
 28 30  1  0  0  0  0
 31 32  1  0  0  0  0
 31 45  2  0  0  0  0
 32 33  1  0  0  0  0
 32 41  2  0  0  0  0
 33 34  1  0  0  0  0
 33 35  2  0  0  0  0
 35 36  1  0  0  0  0
 35 37  1  0  0  0  0
 37 38  1  0  0  0  0
 37 39  2  0  0  0  0
 39 40  1  0  0  0  0
 39 41  1  0  0  0  0
 41 42  1  0  0  0  0
M  END
>  <Activity>
6.6819

>  <AM1_dipole>
5.48587

>  <AM1_E>
-112770

>  <AM1_Eele>
-818297

>  <AM1_HF>
1.86493

>  <AM1_HOMO>
-8.96377

>  <AM1_IP>
8.96377

>  <AM1_LUMO>
-0.66173

>  <diameter>
16

>  <petitjean>
0.5

>  <petitjeanSC>
1

>  <radius>
8

>  <VDistEq>
3.70984

>  <VDistMa>
9.28757

>  <weinerPath>
2249

>  <weinerPol>
46

>  <BCUT_PEOE_0>
-2.71189

>  <BCUT_PEOE_1>
-0.640164

>  <BCUT_PEOE_2>
0.652696

>  <BCUT_PEOE_3>
2.65022

>  <BCUT_SLOGP_0>
-2.86001

>  <BCUT_SLOGP_1>
-0.53808

>  <BCUT_SLOGP_2>
0.805915

>  <BCUT_SLOGP_3>
2.5035

>  <BCUT_SMR_0>
-2.43203

>  <BCUT_SMR_1>
-0.420608

>  <BCUT_SMR_2>
0.854311

>  <BCUT_SMR_3>
2.92024

>  <GCUT_PEOE_0>
-0.860267

>  <GCUT_PEOE_1>
-0.403743

>  <GCUT_PEOE_2>
0.080099

>  <GCUT_PEOE_3>
2.64911

>  <GCUT_SLOGP_0>
-0.976483

>  <GCUT_SLOGP_1>
-0.326579

>  <GCUT_SLOGP_2>
0.164454

>  <GCUT_SLOGP_3>
2.63719

>  <GCUT_SMR_0>
-0.50891

>  <GCUT_SMR_1>
-0.216057

>  <GCUT_SMR_2>
0.241781

>  <GCUT_SMR_3>
2.92303

>  <a_aro>
15

>  <a_count>
46

>  <a_IC>
77.2768

>  <a_ICM>
1.67993

>  <a_nH>
18

>  <b_1rotN>
5

>  <b_1rotR>
0.16129

>  <b_ar>
16

>  <b_count>
49

>  <b_double>
3

>  <b_rotN>
5

>  <b_rotR>
0.16129

>  <b_single>
30

>  <b_triple>
0

>  <chi0v>
15.7776

>  <chi0v_C>
12.0246

>  <chi1v>
9.36751

>  <chi1v_C>
5.93739

>  <chiral>
0

>  <chiral_u>
0

>  <nmol>
1

>  <reactive>
0

>  <rings>
4

>  <Weight>
395.846

>  <a_heavy>
28

>  <a_nB>
0

>  <a_nBr>
0

>  <a_nC>
21

>  <a_nCl>
1

>  <a_nF>
0

>  <a_nI>
0

>  <a_nN>
3

>  <a_nO>
3

>  <a_nP>
0

>  <a_nS>
0

>  <b_heavy>
31

>  <chi0>
19.673

>  <chi0_C>
13.8112

>  <chi1>
13.5417

>  <chi1_C>
8.0244

>  <FCharge>
0

>  <VAdjEq>
0.398935

>  <VAdjMa>
5.9542

>  <zagreb>
150

>  <balabanJ>
1.27201

>  <PEOE_PC+>
2.31852

>  <PEOE_PC->
-2.31852

>  <PEOE_RPC+>
0.127279

>  <PEOE_RPC->
0.155233

>  <PEOE_VSA+0>
85.1516

>  <PEOE_VSA+1>
74.7201

>  <PEOE_VSA+2>
0

>  <PEOE_VSA+3>
8.61901

>  <PEOE_VSA+4>
0

>  <PEOE_VSA+5>
34.3576

>  <PEOE_VSA+6>
0

>  <PEOE_VSA-0>
49.0196

>  <PEOE_VSA-1>
78.6016

>  <PEOE_VSA-2>
0

>  <PEOE_VSA-3>
0

>  <PEOE_VSA-4>
0

>  <PEOE_VSA-5>
40.7008

>  <PEOE_VSA-6>
0.136891

>  <PEOE_VSA_FHYD>
0.797485

>  <PEOE_VSA_FNEG>
0.453691

>  <PEOE_VSA_FPNEG>
0.109983

>  <PEOE_VSA_FPOL>
0.202515

>  <PEOE_VSA_FPOS>
0.546309

>  <PEOE_VSA_FPPOS>
0.0925314

>  <PEOE_VSA_HYD>
296.112

>  <PEOE_VSA_NEG>
168.459

>  <PEOE_VSA_PNEG>
40.8377

>  <PEOE_VSA_POL>
75.1952

>  <PEOE_VSA_POS>
202.848

>  <PEOE_VSA_PPOS>
34.3576

>  <PC+>
4.946

>  <PC->
-4.947

>  <Q_PC+>
4.946

>  <Q_PC->
-4.947

>  <Q_RPC+>
0.132632

>  <Q_RPC->
0.133414

>  <Q_VSA_FHYD>
0.587424

>  <Q_VSA_FNEG>
0.522414

>  <Q_VSA_FPNEG>
0.154715

>  <Q_VSA_FPOL>
0.412576

>  <Q_VSA_FPOS>
0.477586

>  <Q_VSA_FPPOS>
0.257862

>  <Q_VSA_HYD>
218.115

>  <Q_VSA_NEG>
193.976

>  <Q_VSA_PNEG>
57.4467

>  <Q_VSA_POL>
153.193

>  <Q_VSA_POS>
177.331

>  <Q_VSA_PPOS>
95.7459

>  <RPC+>
0.132632

>  <RPC->
0.133414

>  <lip_acc>
6

>  <lip_don>
1

>  <lip_druglike>
1

>  <lip_violation>
0

>  <opr_brigid>
22

>  <opr_leadlike>
1

>  <opr_nring>
4

>  <opr_nrot>
5

>  <opr_violation>
0

>  <E>
92.8883

>  <E_ang>
6.90801

>  <E_ele>
30.0517

>  <E_nb>
75.6521

>  <E_oop>
0.0431337

>  <E_sol>
-19.2863

>  <E_stb>
0.322076

>  <E_str>
6.00552

>  <E_strain>
0.00522709

>  <E_tor>
3.95742

>  <E_vdw>
45.6004

>  <E_rele>
0

>  <E_rnb>
0

>  <E_rsol>
0

>  <E_rvdw>
0

>  <Kier1>
21.2404

>  <Kier2>
9.42769

>  <Kier3>
4.69444

>  <KierA1>
15.4057

>  <KierA2>
6.75023

>  <KierA3>
3.33044

>  <KierFlex>
3.71401

>  <logS>
-4.76388

>  <MNDO_dipole>
6.47803

>  <MNDO_E>
-112541

>  <MNDO_Eele>
-811368

>  <MNDO_HF>
-22.9525

>  <MNDO_HOMO>
-9.08625

>  <MNDO_IP>
9.08625

>  <MNDO_LUMO>
-0.75351

>  <apol>
56.8483

>  <bpol>
27.5917

>  <mr>
10.7803

>  <dipole>
1.57415

>  <dipoleX>
0.94742

>  <dipoleY>
-1.08776

>  <dipoleZ>
-0.63019

>  <pmi>
10109.3

>  <pmiX>
8383.69

>  <pmiY>
786.531

>  <pmiZ>
939.087

>  <rgyr>
5.05356

>  <a_acc>
3

>  <a_acid>
0

>  <a_base>
0

>  <a_don>
1

>  <a_hyd>
19

>  <vsa_acc>
40.7008

>  <vsa_acid>
0

>  <vsa_base>
0

>  <vsa_don>
5.68258

>  <vsa_hyd>
275.392

>  <vsa_other>
34.3576

>  <vsa_pol>
46.3833

>  <PM3_dipole>
6.3303

>  <PM3_E>
-102593

>  <PM3_Eele>
-800668

>  <PM3_HF>
-38.3154

>  <PM3_HOMO>
-8.89486

>  <PM3_IP>
8.89486

>  <PM3_LUMO>
-0.70579

>  <SlogP>
2.9886

>  <SlogP_VSA0>
0

>  <SlogP_VSA1>
22.4538

>  <SlogP_VSA2>
40.6477

>  <SlogP_VSA3>
73.7583

>  <SlogP_VSA4>
54.0956

>  <SlogP_VSA5>
0

>  <SlogP_VSA6>
3.50061

>  <SlogP_VSA7>
163.077

>  <SlogP_VSA8>
0

>  <SlogP_VSA9>
39.1486

>  <SMR>
10.6565

>  <SMR_VSA0>
71.5866

>  <SMR_VSA1>
6.24863

>  <SMR_VSA2>
16.7855

>  <SMR_VSA3>
9.87176

>  <SMR_VSA4>
4.7171

>  <SMR_VSA5>
158.36

>  <SMR_VSA6>
89.9635

>  <SMR_VSA7>
39.1486

>  <ASA>
644.192

>  <ASA+>
236.72

>  <ASA->
301.27

>  <ASA_H>
488.345

>  <ASA_P>
155.847

>  <CASA+>
1170.82

>  <CASA->
1490.38

>  <DASA>
64.5506

>  <DCASA>
319.569

>  <FASA+>
0.367468

>  <FASA->
0.467672

>  <FASA_H>
0.758074

>  <FASA_P>
0.241926

>  <FCASA+>
1.8175

>  <FCASA->
2.31357

>  <VSA>
395.428

>  <TPSA>
73.48

>  <density>
0.78917

>  <vdw_area>
371.307

>  <vdw_vol>
501.598

>  <vsurf_A>
3.09373

>  <vsurf_CP>
0.152287

>  <vsurf_CW1>
2.67212

>  <vsurf_CW2>
2.11766

>  <vsurf_CW3>
1.2674

>  <vsurf_CW4>
0.51767

>  <vsurf_CW5>
0.203092

>  <vsurf_CW6>
0.0617907

>  <vsurf_CW7>
0.00427883

>  <vsurf_CW8>
0

>  <vsurf_D1>
968.75

>  <vsurf_D2>
572.125

>  <vsurf_D3>
425.5

>  <vsurf_D4>
358.5

>  <vsurf_D5>
309.25

>  <vsurf_D6>
256

>  <vsurf_D7>
153.875

>  <vsurf_D8>
86.75

>  <vsurf_DD12>
0.5

>  <vsurf_DD13>
4.33013

>  <vsurf_DD23>
4.06202

>  <vsurf_DW12>
5.5

>  <vsurf_DW13>
0.5

>  <vsurf_DW23>
5.78792

>  <vsurf_EDmin1>
-2.6517

>  <vsurf_EDmin2>
-2.59146

>  <vsurf_EDmin3>
-2.58522

>  <vsurf_EWmin1>
-5.39718

>  <vsurf_EWmin2>
-5.29642

>  <vsurf_EWmin3>
-5.27589

>  <vsurf_G>
1.35739

>  <vsurf_HB1>
319.125

>  <vsurf_HB2>
349.875

>  <vsurf_HB3>
293.75

>  <vsurf_HB4>
101.625

>  <vsurf_HB5>
30.5

>  <vsurf_HB6>
8.125

>  <vsurf_HB7>
0.875

>  <vsurf_HB8>
0

>  <vsurf_HL1>
0.0866627

>  <vsurf_HL2>
0.0271967

>  <vsurf_ID1>
0.877468

>  <vsurf_ID2>
0.878751

>  <vsurf_ID3>
0.949027

>  <vsurf_ID4>
1.08934

>  <vsurf_ID5>
1.23182

>  <vsurf_ID6>
1.25748

>  <vsurf_ID7>
1.01098

>  <vsurf_ID8>
0.981151

>  <vsurf_IW1>
0.15979

>  <vsurf_IW2>
0.648336

>  <vsurf_IW3>
1.32382

>  <vsurf_IW4>
1.91493

>  <vsurf_IW5>
2.24795

>  <vsurf_IW6>
2.7428

>  <vsurf_IW7>
4.14681

>  <vsurf_IW8>
0

>  <vsurf_R>
1.44391

>  <vsurf_S>
589.717

>  <vsurf_V>
851.5

>  <vsurf_W1>
1432.63

>  <vsurf_W2>
816.625

>  <vsurf_W3>
377

>  <vsurf_W4>
118.625

>  <vsurf_W5>
36.875

>  <vsurf_W6>
9.75

>  <vsurf_W7>
0.875

>  <vsurf_W8>
0

>  <vsurf_Wp1>
1113.5

>  <vsurf_Wp2>
466.75

>  <vsurf_Wp3>
83.25

>  <vsurf_Wp4>
17

>  <vsurf_Wp5>
6.375

>  <vsurf_Wp6>
1.625

>  <vsurf_Wp7>
0

>  <vsurf_Wp8>
0

>  <dens>
1.10072

>  <glob>
0.0687241

>  <std_dim1>
4.50571

>  <std_dim2>
1.59537

>  <std_dim3>
1.18119

>  <vol>
359.625

>  <logP(o/w)>
2.712

$$$$
D2.cdx
  MOE2008           3D

 50 53  0  0  0  0  0  0  0  0999 V2000
   -5.5740   -5.7650    0.4240 C   0  0  0  0  0  0  0  0  0  0  0  0
   -6.2210   -5.1000    0.9870 H   0  0  0  0  0  0  0  0  0  0  0  0
   -6.0580   -6.5430   -0.6270 C   0  0  0  0  0  0  0  0  0  0  0  0
   -5.1910   -7.3900   -1.3300 C   0  0  0  0  0  0  0  0  0  0  0  0
   -5.5640   -7.9990   -2.1490 H   0  0  0  0  0  0  0  0  0  0  0  0
   -3.8420   -7.4320   -0.9490 C   0  0  0  0  0  0  0  0  0  0  0  0
   -3.3300   -6.6670    0.0990 C   0  0  0  0  0  0  0  0  0  0  0  0
   -4.2190   -5.8190    0.7940 C   0  0  0  0  0  0  0  0  0  0  0  0
   -3.8600   -5.2050    1.6170 H   0  0  0  0  0  0  0  0  0  0  0  0
   -2.8000   -8.1680   -1.4610 N   0  0  0  0  0  0  0  0  0  0  0  0
   -2.8810   -8.8170   -2.2320 H   0  0  0  0  0  0  0  0  0  0  0  0
   -1.6460   -7.8930   -0.7760 C   0  0  0  0  0  0  0  0  0  0  0  0
   -0.7240   -8.3930   -1.0490 H   0  0  0  0  0  0  0  0  0  0  0  0
   -1.9300   -6.9650    0.2090 C   0  0  0  0  0  0  0  0  0  0  0  0
   -0.9690   -6.4150    1.1590 C   0  0  0  0  0  0  0  0  0  0  0  0
    0.4770   -6.8790    1.1370 C   0  0  0  0  0  0  0  0  0  0  0  0
    1.4070   -6.0380    0.5310 N   0  0  0  0  0  0  0  0  0  0  0  0
    2.8160   -6.4330    0.4720 C   0  0  0  0  0  0  0  0  0  0  0  0
    2.9860   -7.3680    1.0140 H   0  0  0  0  0  0  0  0  0  0  0  0
    3.0480   -6.6140   -0.5840 H   0  0  0  0  0  0  0  0  0  0  0  0
    3.7320   -5.3330    1.0270 C   0  0  0  0  0  0  0  0  0  0  0  0
    4.7710   -5.6210    0.8500 H   0  0  0  0  0  0  0  0  0  0  0  0
    3.5850   -5.2290    2.1080 H   0  0  0  0  0  0  0  0  0  0  0  0
    3.4190   -4.0240    0.4270 N   0  0  0  0  0  0  0  0  0  0  0  0
    2.0040   -3.6400    0.4890 C   0  0  0  0  0  0  0  0  0  0  0  0
    1.7680   -3.4790    1.5480 H   0  0  0  0  0  0  0  0  0  0  0  0
    1.8240   -2.6980   -0.0370 H   0  0  0  0  0  0  0  0  0  0  0  0
    1.1020   -4.7390   -0.0850 C   0  0  0  0  0  0  0  0  0  0  0  0
    1.2850   -4.8510   -1.1610 H   0  0  0  0  0  0  0  0  0  0  0  0
    0.0530   -4.4630    0.0420 H   0  0  0  0  0  0  0  0  0  0  0  0
    4.3290   -3.1620   -0.1780 C   0  0  0  0  0  0  0  0  0  0  0  0
    5.7730   -3.4620   -0.0770 C   0  0  0  0  0  0  0  0  0  0  0  0
    6.4050   -3.4840    1.1710 C   0  0  0  0  0  0  0  0  0  0  0  0
    5.8410   -3.2990    2.0810 H   0  0  0  0  0  0  0  0  0  0  0  0
    7.7740   -3.7390    1.2420 C   0  0  0  0  0  0  0  0  0  0  0  0
    8.2740   -3.7630    2.2070 H   0  0  0  0  0  0  0  0  0  0  0  0
    8.5070   -3.9550    0.0720 C   0  0  0  0  0  0  0  0  0  0  0  0
    9.5750   -4.1500    0.1300 H   0  0  0  0  0  0  0  0  0  0  0  0
    7.8750   -3.9090   -1.1730 C   0  0  0  0  0  0  0  0  0  0  0  0
    8.4530   -4.0650   -2.0810 H   0  0  0  0  0  0  0  0  0  0  0  0
    6.5060   -3.6560   -1.2520 C   0  0  0  0  0  0  0  0  0  0  0  0
    6.0150   -3.6090   -2.2200 H   0  0  0  0  0  0  0  0  0  0  0  0
   -1.2640   -5.5680    1.9990 O   0  0  0  0  0  0  0  0  0  0  0  0
    0.7300   -7.9640    1.6490 O   0  0  0  0  0  0  0  0  0  0  0  0
    4.0140   -2.1520   -0.8020 O   0  0  0  0  0  0  0  0  0  0  0  0
   -7.3560   -6.5710   -1.0720 O   0  0  0  0  0  0  0  0  0  0  0  0
   -8.2930   -5.7480   -0.3880 C   0  0  0  0  0  0  0  0  0  0  0  0
   -9.2710   -5.8940   -0.8570 H   0  0  0  0  0  0  0  0  0  0  0  0
   -8.0320   -4.6890   -0.4850 H   0  0  0  0  0  0  0  0  0  0  0  0
   -8.3810   -6.0400    0.6640 H   0  0  0  0  0  0  0  0  0  0  0  0
  1  2  1  0  0  0  0
  1  3  1  0  0  0  0
  1  8  2  0  0  0  0
  3  4  2  0  0  0  0
  3 46  1  0  0  0  0
  4  5  1  0  0  0  0
  4  6  1  0  0  0  0
  6  7  2  0  0  0  0
  6 10  1  0  0  0  0
  7  8  1  0  0  0  0
  7 14  1  0  0  0  0
  8  9  1  0  0  0  0
 10 11  1  0  0  0  0
 10 12  1  0  0  0  0
 12 13  1  0  0  0  0
 12 14  2  0  0  0  0
 14 15  1  0  0  0  0
 15 16  1  0  0  0  0
 15 43  2  0  0  0  0
 16 17  1  0  0  0  0
 16 44  2  0  0  0  0
 17 18  1  0  0  0  0
 17 28  1  0  0  0  0
 18 19  1  0  0  0  0
 18 20  1  0  0  0  0
 18 21  1  0  0  0  0
 21 22  1  0  0  0  0
 21 23  1  0  0  0  0
 21 24  1  0  0  0  0
 24 25  1  0  0  0  0
 24 31  1  0  0  0  0
 25 26  1  0  0  0  0
 25 27  1  0  0  0  0
 25 28  1  0  0  0  0
 28 29  1  0  0  0  0
 28 30  1  0  0  0  0
 31 32  1  0  0  0  0
 31 45  2  0  0  0  0
 32 33  1  0  0  0  0
 32 41  2  0  0  0  0
 33 34  1  0  0  0  0
 33 35  2  0  0  0  0
 35 36  1  0  0  0  0
 35 37  1  0  0  0  0
 37 38  1  0  0  0  0
 37 39  2  0  0  0  0
 39 40  1  0  0  0  0
 39 41  1  0  0  0  0
 41 42  1  0  0  0  0
 46 47  1  0  0  0  0
 47 48  1  0  0  0  0
 47 49  1  0  0  0  0
 47 50  1  0  0  0  0
M  END
>  <Activity>
6.483

>  <AM1_dipole>
3.12851

>  <AM1_E>
-115440

>  <AM1_Eele>
-868104

>  <AM1_HF>
-11.3149

>  <AM1_HOMO>
-8.57661

>  <AM1_IP>
8.57661

>  <AM1_LUMO>
-0.49501

>  <diameter>
17

>  <petitjean>
0.470588

>  <petitjeanSC>
0.888889

>  <radius>
9

>  <VDistEq>
3.77513

>  <VDistMa>
9.38675

>  <weinerPath>
2503

>  <weinerPol>
48

>  <BCUT_PEOE_0>
-2.71189

>  <BCUT_PEOE_1>
-0.617193

>  <BCUT_PEOE_2>
0.623843

>  <BCUT_PEOE_3>
2.65023

>  <BCUT_SLOGP_0>
-2.86001

>  <BCUT_SLOGP_1>
-0.530556

>  <BCUT_SLOGP_2>
0.687458

>  <BCUT_SLOGP_3>
2.50365

>  <BCUT_SMR_0>
-2.43203

>  <BCUT_SMR_1>
-0.409897

>  <BCUT_SMR_2>
0.78389

>  <BCUT_SMR_3>
2.92024

>  <GCUT_PEOE_0>
-0.860284

>  <GCUT_PEOE_1>
-0.424386

>  <GCUT_PEOE_2>
0.0729122

>  <GCUT_PEOE_3>
2.66826

>  <GCUT_SLOGP_0>
-0.97649

>  <GCUT_SLOGP_1>
-0.337846

>  <GCUT_SLOGP_2>
0.134231

>  <GCUT_SLOGP_3>
2.66339

>  <GCUT_SMR_0>
-0.508923

>  <GCUT_SMR_1>
-0.209478

>  <GCUT_SMR_2>
0.181018

>  <GCUT_SMR_3>
2.94106

>  <a_aro>
15

>  <a_count>
50

>  <a_IC>
79.0918

>  <a_ICM>
1.58184

>  <a_nH>
21

>  <b_1rotN>
6

>  <b_1rotR>
0.1875

>  <b_ar>
16

>  <b_count>
53

>  <b_double>
3

>  <b_rotN>
6

>  <b_rotR>
0.1875

>  <b_single>
34

>  <b_triple>
0

>  <chi0v>
16.052

>  <chi0v_C>
13.0246

>  <chi1v>
9.41294

>  <chi1v_C>
5.93739

>  <chiral>
0

>  <chiral_u>
0

>  <nmol>
1

>  <reactive>
0

>  <rings>
4

>  <Weight>
391.427

>  <a_heavy>
29

>  <a_nB>
0

>  <a_nBr>
0

>  <a_nC>
22

>  <a_nCl>
0

>  <a_nF>
0

>  <a_nI>
0

>  <a_nN>
3

>  <a_nO>
4

>  <a_nP>
0

>  <a_nS>
0

>  <b_heavy>
32

>  <chi0>
20.3801

>  <chi0_C>
14.8112

>  <chi1>
14.0797

>  <chi1_C>
8.0244

>  <FCharge>
0

>  <VAdjEq>
0.388286

>  <VAdjMa>
6

>  <zagreb>
154

>  <balabanJ>
1.26585

>  <PEOE_PC+>
2.55842

>  <PEOE_PC->
-2.55842

>  <PEOE_RPC+>
0.115344

>  <PEOE_RPC->
0.140665

>  <PEOE_VSA+0>
105.63

>  <PEOE_VSA+1>
95.9748

>  <PEOE_VSA+2>
0

>  <PEOE_VSA+3>
8.61901

>  <PEOE_VSA+4>
0

>  <PEOE_VSA+5>
34.3576

>  <PEOE_VSA+6>
0

>  <PEOE_VSA-0>
61.2745

>  <PEOE_VSA-1>
36.7647

>  <PEOE_VSA-2>
0

>  <PEOE_VSA-3>
0

>  <PEOE_VSA-4>
0

>  <PEOE_VSA-5>
40.7008

>  <PEOE_VSA-6>
2.64065

>  <PEOE_VSA_FHYD>
0.798687

>  <PEOE_VSA_FNEG>
0.366308

>  <PEOE_VSA_FPNEG>
0.112295

>  <PEOE_VSA_FPOL>
0.201313

>  <PEOE_VSA_FPOS>
0.633692

>  <PEOE_VSA_FPPOS>
0.0890182

>  <PEOE_VSA_HYD>
308.263

>  <PEOE_VSA_NEG>
141.381

>  <PEOE_VSA_PNEG>
43.3414

>  <PEOE_VSA_POL>
77.699

>  <PEOE_VSA_POS>
244.581

>  <PEOE_VSA_PPOS>
34.3576

>  <PC+>
5.131

>  <PC->
-5.133

>  <Q_PC+>
5.131

>  <Q_PC->
-5.133

>  <Q_RPC+>
0.12785

>  <Q_RPC->
0.12858

>  <Q_VSA_FHYD>
0.531834

>  <Q_VSA_FNEG>
0.432421

>  <Q_VSA_FPNEG>
0.155327

>  <Q_VSA_FPOL>
0.468166

>  <Q_VSA_FPOS>
0.567579

>  <Q_VSA_FPPOS>
0.312838

>  <Q_VSA_HYD>
205.268

>  <Q_VSA_NEG>
166.898

>  <Q_VSA_PNEG>
59.9504

>  <Q_VSA_POL>
180.694

>  <Q_VSA_POS>
219.064

>  <Q_VSA_PPOS>
120.744

>  <RPC+>
0.12785

>  <RPC->
0.12858

>  <lip_acc>
7

>  <lip_don>
1

>  <lip_druglike>
1

>  <lip_violation>
0

>  <opr_brigid>
22

>  <opr_leadlike>
1

>  <opr_nring>
4

>  <opr_nrot>
6

>  <opr_violation>
0

>  <E>
101.624

>  <E_ang>
14.5941

>  <E_ele>
28.2133

>  <E_nb>
78.8122

>  <E_oop>
0.017898

>  <E_sol>
-22.8982

>  <E_stb>
0.203779

>  <E_str>
6.22077

>  <E_strain>
0.0052142

>  <E_tor>
1.77479

>  <E_vdw>
50.5989

>  <E_rele>
0

>  <E_rnb>
8.52651e-014

>  <E_rsol>
8.52651e-014

>  <E_rvdw>
0

>  <Kier1>
22.2031

>  <Kier2>
10.08

>  <Kier3>
4.92404

>  <KierA1>
15.4407

>  <KierA2>
6.91129

>  <KierA3>
3.34094

>  <KierFlex>
3.67983

>  <logS>
-4.07997

>  <MNDO_dipole>
3.5215

>  <MNDO_E>
-115720

>  <MNDO_Eele>
-857599

>  <MNDO_HF>
-54.7522

>  <MNDO_HOMO>
-8.56407

>  <MNDO_IP>
8.56407

>  <MNDO_LUMO>
-0.48317

>  <apol>
59.2307

>  <bpol>
32.3673

>  <mr>
10.9202

>  <dipole>
0.797038

>  <dipoleX>
0.428748

>  <dipoleY>
-0.511959

>  <dipoleZ>
-0.435134

>  <pmi>
10424.7

>  <pmiX>
8935.8

>  <pmiY>
1098.43

>  <pmiZ>
390.42

>  <rgyr>
5.16066

>  <a_acc>
4

>  <a_acid>
0

>  <a_base>
0

>  <a_don>
1

>  <a_hyd>
19

>  <vsa_acc>
43.2045

>  <vsa_acid>
0

>  <vsa_base>
0

>  <vsa_don>
5.68258

>  <vsa_hyd>
285.408

>  <vsa_other>
34.3576

>  <vsa_pol>
48.8871

>  <PM3_dipole>
3.54053

>  <PM3_E>
-105859

>  <PM3_Eele>
-856825

>  <PM3_HF>
-72.928

>  <PM3_HOMO>
-8.61032

>  <PM3_IP>
8.61032

>  <PM3_LUMO>
-0.54125

>  <SlogP>
2.3438

>  <SlogP_VSA0>
10.9999

>  <SlogP_VSA1>
22.4538

>  <SlogP_VSA2>
40.6477

>  <SlogP_VSA3>
73.7583

>  <SlogP_VSA4>
54.0956

>  <SlogP_VSA5>
35.3839

>  <SlogP_VSA6>
0

>  <SlogP_VSA7>
163.077

>  <SlogP_VSA8>
0

>  <SlogP_VSA9>
5.24343

>  <SMR>
10.8107

>  <SMR_VSA0>
71.5866

>  <SMR_VSA1>
17.2485

>  <SMR_VSA2>
16.7855

>  <SMR_VSA3>
11.6146

>  <SMR_VSA4>
4.7171

>  <SMR_VSA5>
158.36

>  <SMR_VSA6>
89.9635

>  <SMR_VSA7>
35.3839

>  <ASA>
669.193

>  <ASA+>
267.242

>  <ASA->
238.06

>  <ASA_H>
474.05

>  <ASA_P>
195.143

>  <CASA+>
1371.22

>  <CASA->
1221.96

>  <DASA>
29.1822

>  <DCASA>
149.258

>  <FASA+>
0.39935

>  <FASA->
0.355742

>  <FASA_H>
0.708391

>  <FASA_P>
0.291609

>  <FCASA+>
2.04907

>  <FCASA->
1.82603

>  <VSA>
408.15

>  <TPSA>
82.71

>  <density>
0.751685

>  <vdw_area>
385.962

>  <vdw_vol>
520.732

>  <vsurf_A>
1.15502

>  <vsurf_CP>
0.138977

>  <vsurf_CW1>
2.65496

>  <vsurf_CW2>
2.08328

>  <vsurf_CW3>
1.34215

>  <vsurf_CW4>
0.548079

>  <vsurf_CW5>
0.199412

>  <vsurf_CW6>
0.0593056

>  <vsurf_CW7>
0.00463197

>  <vsurf_CW8>
0

>  <vsurf_D1>
925.25

>  <vsurf_D2>
550.125

>  <vsurf_D3>
415.875

>  <vsurf_D4>
353.75

>  <vsurf_D5>
304.5

>  <vsurf_D6>
230

>  <vsurf_D7>
137.875

>  <vsurf_D8>
79.875

>  <vsurf_DD12>
5.38516

>  <vsurf_DD13>
5.22015

>  <vsurf_DD23>
0.5

>  <vsurf_DW12>
0.707107

>  <vsurf_DW13>
0.707107

>  <vsurf_DW23>
0.707107

>  <vsurf_EDmin1>
-2.63542

>  <vsurf_EDmin2>
-2.62271

>  <vsurf_EDmin3>
-2.59187

>  <vsurf_EWmin1>
-5.51481

>  <vsurf_EWmin2>
-5.49457

>  <vsurf_EWmin3>
-5.42504

>  <vsurf_G>
1.37773

>  <vsurf_HB1>
326.375

>  <vsurf_HB2>
390.875

>  <vsurf_HB3>
330.625

>  <vsurf_HB4>
110.75

>  <vsurf_HB5>
30.75

>  <vsurf_HB6>
8.125

>  <vsurf_HB7>
0.875

>  <vsurf_HB8>
0

>  <vsurf_HL1>
0.0901713

>  <vsurf_HL2>
0.0268551

>  <vsurf_ID1>
0.489383

>  <vsurf_ID2>
0.389941

>  <vsurf_ID3>
0.440215

>  <vsurf_ID4>
0.580852

>  <vsurf_ID5>
0.739875

>  <vsurf_ID6>
1.40237

>  <vsurf_ID7>
0.609855

>  <vsurf_ID8>
1.1191

>  <vsurf_IW1>
0.210364

>  <vsurf_IW2>
0.603442

>  <vsurf_IW3>
0.811247

>  <vsurf_IW4>
0.671546

>  <vsurf_IW5>
0.891919

>  <vsurf_IW6>
1.78924

>  <vsurf_IW7>
3.5435

>  <vsurf_IW8>
0

>  <vsurf_R>
1.43138

>  <vsurf_S>
605.971

>  <vsurf_V>
867.375

>  <vsurf_W1>
1437.13

>  <vsurf_W2>
848.75

>  <vsurf_W3>
410.875

>  <vsurf_W4>
127

>  <vsurf_W5>
37.5

>  <vsurf_W6>
9.5

>  <vsurf_W7>
0.875

>  <vsurf_W8>
0

>  <vsurf_Wp1>
1110.75

>  <vsurf_Wp2>
457.875

>  <vsurf_Wp3>
80.25

>  <vsurf_Wp4>
16.25

>  <vsurf_Wp5>
6.75

>  <vsurf_Wp6>
1.375

>  <vsurf_Wp7>
0

>  <vsurf_Wp8>
0

>  <dens>
1.05328

>  <glob>
0.0459119

>  <std_dim1>
5.25417

>  <std_dim2>
1.37546

>  <std_dim3>
1.12581

>  <vol>
371.625

>  <logP(o/w)>
2.076

$$$$
D2.cdx
  MOE2008           3D

 46 49  0  0  0  0  0  0  0  0999 V2000
   -5.9560  -10.0210    0.6250 C   0  0  0  0  0  0  0  0  0  0  0  0
   -6.8500   -9.4920    0.2990 H   0  0  0  0  0  0  0  0  0  0  0  0
   -5.9830  -10.7700    1.7970 C   0  0  0  0  0  0  0  0  0  0  0  0
   -6.8930  -10.8300    2.3880 H   0  0  0  0  0  0  0  0  0  0  0  0
   -4.8460  -11.4520    2.2250 C   0  0  0  0  0  0  0  0  0  0  0  0
   -3.6850  -11.3690    1.4540 C   0  0  0  0  0  0  0  0  0  0  0  0
   -3.6240  -10.6280    0.2730 C   0  0  0  0  0  0  0  0  0  0  0  0
   -4.7870   -9.9410   -0.1440 C   0  0  0  0  0  0  0  0  0  0  0  0
   -4.7800   -9.3540   -1.0590 H   0  0  0  0  0  0  0  0  0  0  0  0
   -2.4510  -11.9380    1.6480 N   0  0  0  0  0  0  0  0  0  0  0  0
   -2.2100  -12.5290    2.4330 H   0  0  0  0  0  0  0  0  0  0  0  0
   -1.6080  -11.5890    0.6260 C   0  0  0  0  0  0  0  0  0  0  0  0
   -0.5890  -11.9580    0.6160 H   0  0  0  0  0  0  0  0  0  0  0  0
   -2.2980  -10.7740   -0.2530 C   0  0  0  0  0  0  0  0  0  0  0  0
   -1.7540  -10.1880   -1.4720 C   0  0  0  0  0  0  0  0  0  0  0  0
   -0.3480  -10.5430   -1.9120 C   0  0  0  0  0  0  0  0  0  0  0  0
    0.6680   -9.6530   -1.5780 N   0  0  0  0  0  0  0  0  0  0  0  0
    2.0470   -9.9480   -1.9660 C   0  0  0  0  0  0  0  0  0  0  0  0
    2.1220  -10.9310   -2.4430 H   0  0  0  0  0  0  0  0  0  0  0  0
    2.3340   -9.1960   -2.7110 H   0  0  0  0  0  0  0  0  0  0  0  0
    2.9940   -9.8790   -0.7610 C   0  0  0  0  0  0  0  0  0  0  0  0
    4.0210   -9.9880   -1.1170 H   0  0  0  0  0  0  0  0  0  0  0  0
    2.7820  -10.7020   -0.0670 H   0  0  0  0  0  0  0  0  0  0  0  0
    2.8120   -8.6290   -0.0030 N   0  0  0  0  0  0  0  0  0  0  0  0
    1.4240   -8.3170    0.3580 C   0  0  0  0  0  0  0  0  0  0  0  0
    1.1220   -9.0640    1.1030 H   0  0  0  0  0  0  0  0  0  0  0  0
    1.3480   -7.3330    0.8310 H   0  0  0  0  0  0  0  0  0  0  0  0
    0.4880   -8.3880   -0.8540 C   0  0  0  0  0  0  0  0  0  0  0  0
    0.7270   -7.5830   -1.5610 H   0  0  0  0  0  0  0  0  0  0  0  0
   -0.5460   -8.2490   -0.5310 H   0  0  0  0  0  0  0  0  0  0  0  0
    3.8240   -7.7540    0.3840 C   0  0  0  0  0  0  0  0  0  0  0  0
    5.2330   -8.1740    0.2180 C   0  0  0  0  0  0  0  0  0  0  0  0
    5.7170   -9.3040    0.8860 C   0  0  0  0  0  0  0  0  0  0  0  0
    5.0620   -9.8950    1.5210 H   0  0  0  0  0  0  0  0  0  0  0  0
    7.0550   -9.6680    0.7390 C   0  0  0  0  0  0  0  0  0  0  0  0
    7.4390  -10.5470    1.2490 H   0  0  0  0  0  0  0  0  0  0  0  0
    7.9050   -8.8960   -0.0570 C   0  0  0  0  0  0  0  0  0  0  0  0
    8.9490   -9.1800   -0.1670 H   0  0  0  0  0  0  0  0  0  0  0  0
    7.4230   -7.7550   -0.7020 C   0  0  0  0  0  0  0  0  0  0  0  0
    8.0930   -7.1510   -1.3090 H   0  0  0  0  0  0  0  0  0  0  0  0
    6.0860   -7.3860   -0.5610 C   0  0  0  0  0  0  0  0  0  0  0  0
    5.7120   -6.4920   -1.0530 H   0  0  0  0  0  0  0  0  0  0  0  0
   -2.3770   -9.4010   -2.1790 O   0  0  0  0  0  0  0  0  0  0  0  0
   -0.1980  -11.6010   -2.5160 O   0  0  0  0  0  0  0  0  0  0  0  0
    3.6280   -6.6450    0.8710 O   0  0  0  0  0  0  0  0  0  0  0  0
   -4.8880  -12.1700    3.3560 F   0  0  0  0  0  0  0  0  0  0  0  0
  1  2  1  0  0  0  0
  1  3  1  0  0  0  0
  1  8  2  0  0  0  0
  3  4  1  0  0  0  0
  3  5  2  0  0  0  0
  5  6  1  0  0  0  0
  5 46  1  0  0  0  0
  6  7  2  0  0  0  0
  6 10  1  0  0  0  0
  7  8  1  0  0  0  0
  7 14  1  0  0  0  0
  8  9  1  0  0  0  0
 10 11  1  0  0  0  0
 10 12  1  0  0  0  0
 12 13  1  0  0  0  0
 12 14  2  0  0  0  0
 14 15  1  0  0  0  0
 15 16  1  0  0  0  0
 15 43  2  0  0  0  0
 16 17  1  0  0  0  0
 16 44  2  0  0  0  0
 17 18  1  0  0  0  0
 17 28  1  0  0  0  0
 18 19  1  0  0  0  0
 18 20  1  0  0  0  0
 18 21  1  0  0  0  0
 21 22  1  0  0  0  0
 21 23  1  0  0  0  0
 21 24  1  0  0  0  0
 24 25  1  0  0  0  0
 24 31  1  0  0  0  0
 25 26  1  0  0  0  0
 25 27  1  0  0  0  0
 25 28  1  0  0  0  0
 28 29  1  0  0  0  0
 28 30  1  0  0  0  0
 31 32  1  0  0  0  0
 31 45  2  0  0  0  0
 32 33  1  0  0  0  0
 32 41  2  0  0  0  0
 33 34  1  0  0  0  0
 33 35  2  0  0  0  0
 35 36  1  0  0  0  0
 35 37  1  0  0  0  0
 37 38  1  0  0  0  0
 37 39  2  0  0  0  0
 39 40  1  0  0  0  0
 39 41  1  0  0  0  0
 41 42  1  0  0  0  0
M  END
>  <Activity>
8.1366

>  <AM1_dipole>
4.14112

>  <AM1_E>
-115337

>  <AM1_Eele>
-832667

>  <AM1_HF>
-42.8137

>  <AM1_HOMO>
-8.95113

>  <AM1_IP>
8.95113

>  <AM1_LUMO>
-0.66941

>  <diameter>
15

>  <petitjean>
0.466667

>  <petitjeanSC>
0.875

>  <radius>
8

>  <VDistEq>
3.68215

>  <VDistMa>
9.29035

>  <weinerPath>
2228

>  <weinerPol>
47

>  <BCUT_PEOE_0>
-2.71189

>  <BCUT_PEOE_1>
-0.639652

>  <BCUT_PEOE_2>
0.641157

>  <BCUT_PEOE_3>
2.65024

>  <BCUT_SLOGP_0>
-2.86001

>  <BCUT_SLOGP_1>
-0.53808

>  <BCUT_SLOGP_2>
0.783407

>  <BCUT_SLOGP_3>
2.50336

>  <BCUT_SMR_0>
-2.43203

>  <BCUT_SMR_1>
-0.433307

>  <BCUT_SMR_2>
0.826277

>  <BCUT_SMR_3>
2.92024

>  <GCUT_PEOE_0>
-0.853941

>  <GCUT_PEOE_1>
-0.403742

>  <GCUT_PEOE_2>
0.080099

>  <GCUT_PEOE_3>
2.65093

>  <GCUT_SLOGP_0>
-0.976486

>  <GCUT_SLOGP_1>
-0.337058

>  <GCUT_SLOGP_2>
0.164454

>  <GCUT_SLOGP_3>
2.629

>  <GCUT_SMR_0>
-0.508912

>  <GCUT_SMR_1>
-0.216057

>  <GCUT_SMR_2>
0.193051

>  <GCUT_SMR_3>
2.9201

>  <a_aro>
15

>  <a_count>
46

>  <a_IC>
77.2768

>  <a_ICM>
1.67993

>  <a_nH>
18

>  <b_1rotN>
5

>  <b_1rotR>
0.16129

>  <b_ar>
16

>  <b_count>
49

>  <b_double>
3

>  <b_rotN>
5

>  <b_rotR>
0.16129

>  <b_single>
30

>  <b_triple>
0

>  <chi0v>
15.0217

>  <chi0v_C>
12.0246

>  <chi1v>
8.99553

>  <chi1v_C>
5.94338

>  <chiral>
0

>  <chiral_u>
0

>  <nmol>
1

>  <reactive>
0

>  <rings>
4

>  <Weight>
379.391

>  <a_heavy>
28

>  <a_nB>
0

>  <a_nBr>
0

>  <a_nC>
21

>  <a_nCl>
0

>  <a_nF>
1

>  <a_nI>
0

>  <a_nN>
3

>  <a_nO>
3

>  <a_nP>
0

>  <a_nS>
0

>  <b_heavy>
31

>  <chi0>
19.673

>  <chi0_C>
13.8112

>  <chi1>
13.5586

>  <chi1_C>
8.04124

>  <FCharge>
0

>  <VAdjEq>
0.398935

>  <VAdjMa>
5.9542

>  <zagreb>
150

>  <balabanJ>
1.28268

>  <PEOE_PC+>
2.45798

>  <PEOE_PC->
-2.45798

>  <PEOE_RPC+>
0.120058

>  <PEOE_RPC->
0.145539

>  <PEOE_VSA+0>
73.9323

>  <PEOE_VSA+1>
81.4197

>  <PEOE_VSA+2>
9.02085

>  <PEOE_VSA+3>
8.61901

>  <PEOE_VSA+4>
0

>  <PEOE_VSA+5>
34.3576

>  <PEOE_VSA+6>
0

>  <PEOE_VSA-0>
36.7647

>  <PEOE_VSA-1>
61.2745

>  <PEOE_VSA-2>
0

>  <PEOE_VSA-3>
0

>  <PEOE_VSA-4>
11.9086

>  <PEOE_VSA-5>
40.7008

>  <PEOE_VSA-6>
0.136891

>  <PEOE_VSA_FHYD>
0.756785

>  <PEOE_VSA_FNEG>
0.42103

>  <PEOE_VSA_FPNEG>
0.14728

>  <PEOE_VSA_FPOL>
0.243215

>  <PEOE_VSA_FPOS>
0.57897

>  <PEOE_VSA_FPPOS>
0.0959347

>  <PEOE_VSA_HYD>
271.031

>  <PEOE_VSA_NEG>
150.786

>  <PEOE_VSA_PNEG>
52.7463

>  <PEOE_VSA_POL>
87.1039

>  <PEOE_VSA_POS>
207.349

>  <PEOE_VSA_PPOS>
34.3576

>  <PC+>
4.959

>  <PC->
-4.96

>  <Q_PC+>
4.959

>  <Q_PC->
-4.96

>  <Q_RPC+>
0.132285

>  <Q_RPC->
0.133065

>  <Q_VSA_FHYD>
0.572249

>  <Q_VSA_FNEG>
0.49228

>  <Q_VSA_FPNEG>
0.160405

>  <Q_VSA_FPOL>
0.427751

>  <Q_VSA_FPOS>
0.50772

>  <Q_VSA_FPPOS>
0.267346

>  <Q_VSA_HYD>
204.942

>  <Q_VSA_NEG>
176.303

>  <Q_VSA_PNEG>
57.4467

>  <Q_VSA_POL>
153.193

>  <Q_VSA_POS>
181.832

>  <Q_VSA_PPOS>
95.7459

>  <RPC+>
0.132285

>  <RPC->
0.133065

>  <lip_acc>
6

>  <lip_don>
1

>  <lip_druglike>
1

>  <lip_violation>
0

>  <opr_brigid>
22

>  <opr_leadlike>
1

>  <opr_nring>
4

>  <opr_nrot>
5

>  <opr_violation>
0

>  <E>
90.6368

>  <E_ang>
8.12326

>  <E_ele>
29.9189

>  <E_nb>
74.6751

>  <E_oop>
0.0284932

>  <E_sol>
-19.0194

>  <E_stb>
0.273881

>  <E_str>
5.67274

>  <E_strain>
0.00757267

>  <E_tor>
1.86327

>  <E_vdw>
44.7562

>  <E_rele>
0

>  <E_rnb>
-2.84217e-014

>  <E_rsol>
-2.84217e-014

>  <E_rvdw>
0

>  <Kier1>
21.2404

>  <Kier2>
9.42769

>  <Kier3>
4.54179

>  <KierA1>
14.4569

>  <KierA2>
6.31723

>  <KierA3>
3.00956

>  <KierFlex>
3.26171

>  <logS>
-4.32457

>  <MNDO_dipole>
3.49537

>  <MNDO_E>
-115420

>  <MNDO_Eele>
-823795

>  <MNDO_HF>
-62.349

>  <MNDO_HOMO>
-8.95897

>  <MNDO_IP>
8.95897

>  <MNDO_LUMO>
-0.72877

>  <apol>
55.2253

>  <bpol>
28.3747

>  <mr>
10.353

>  <dipole>
0.997909

>  <dipoleX>
0.725927

>  <dipoleY>
-0.550545

>  <dipoleZ>
0.407128

>  <pmi>
8395.84

>  <pmiX>
6724.39

>  <pmiY>
859.534

>  <pmiZ>
811.918

>  <rgyr>
4.70423

>  <a_acc>
3

>  <a_acid>
0

>  <a_base>
0

>  <a_don>
1

>  <a_hyd>
19

>  <vsa_acc>
40.7008

>  <vsa_acid>
0

>  <vsa_base>
0

>  <vsa_don>
5.68258

>  <vsa_hyd>
262.22

>  <vsa_other>
34.3576

>  <vsa_pol>
46.3833

>  <PM3_dipole>
3.92805

>  <PM3_E>
-105443

>  <PM3_Eele>
-824183

>  <PM3_HF>
-77.5026

>  <PM3_HOMO>
-8.96556

>  <PM3_IP>
8.96556

>  <PM3_LUMO>
-0.77586

>  <SlogP>
2.4743

>  <SlogP_VSA0>
0

>  <SlogP_VSA1>
22.4538

>  <SlogP_VSA2>
49.7688

>  <SlogP_VSA3>
73.7583

>  <SlogP_VSA4>
54.0956

>  <SlogP_VSA5>
0

>  <SlogP_VSA6>
0

>  <SlogP_VSA7>
163.077

>  <SlogP_VSA8>
0

>  <SlogP_VSA9>
14.9601

>  <SMR>
10.1513

>  <SMR_VSA0>
71.5866

>  <SMR_VSA1>
21.2087

>  <SMR_VSA2>
25.9065

>  <SMR_VSA3>
6.37115

>  <SMR_VSA4>
4.7171

>  <SMR_VSA5>
158.36

>  <SMR_VSA6>
89.9635

>  <SMR_VSA7>
0

>  <ASA>
627.167

>  <ASA+>
250.253

>  <ASA->
276.03

>  <ASA_H>
466.993

>  <ASA_P>
160.173

>  <CASA+>
1241

>  <CASA->
1369.11

>  <DASA>
25.7775

>  <DCASA>
128.107

>  <FASA+>
0.399021

>  <FASA->
0.440123

>  <FASA_H>
0.744608

>  <FASA_P>
0.255392

>  <FCASA+>
1.97874

>  <FCASA->
2.18301

>  <VSA>
379.774

>  <TPSA>
73.48

>  <density>
0.776193

>  <vdw_area>
358.135

>  <vdw_vol>
488.784

>  <vsurf_A>
1.93768

>  <vsurf_CP>
0.116025

>  <vsurf_CW1>
2.6859

>  <vsurf_CW2>
2.1984

>  <vsurf_CW3>
1.46184

>  <vsurf_CW4>
0.634305

>  <vsurf_CW5>
0.247032

>  <vsurf_CW6>
0.0778179

>  <vsurf_CW7>
0.00333766

>  <vsurf_CW8>
0

>  <vsurf_D1>
817

>  <vsurf_D2>
474.5

>  <vsurf_D3>
353

>  <vsurf_D4>
301.125

>  <vsurf_D5>
255.75

>  <vsurf_D6>
209.125

>  <vsurf_D7>
118.375

>  <vsurf_D8>
65

>  <vsurf_DD12>
0.5

>  <vsurf_DD13>
1.22474

>  <vsurf_DD23>
0.866025

>  <vsurf_DW12>
0.5

>  <vsurf_DW13>
5.5

>  <vsurf_DW23>
5.78792

>  <vsurf_EDmin1>
-2.70107

>  <vsurf_EDmin2>
-2.68777

>  <vsurf_EDmin3>
-2.63985

>  <vsurf_EWmin1>
-5.27944

>  <vsurf_EWmin2>
-5.20474

>  <vsurf_EWmin3>
-5.15712

>  <vsurf_G>
1.33777

>  <vsurf_HB1>
339.625

>  <vsurf_HB2>
400.5

>  <vsurf_HB3>
357.5

>  <vsurf_HB4>
125

>  <vsurf_HB5>
37

>  <vsurf_HB6>
9.875

>  <vsurf_HB7>
1.125

>  <vsurf_HB8>
0

>  <vsurf_HL1>
0.120751

>  <vsurf_HL2>
0.0386052

>  <vsurf_ID1>
0.99539

>  <vsurf_ID2>
0.98706

>  <vsurf_ID3>
1.09026

>  <vsurf_ID4>
1.31526

>  <vsurf_ID5>
1.62791

>  <vsurf_ID6>
1.80634

>  <vsurf_ID7>
1.32246

>  <vsurf_ID8>
0.84679

>  <vsurf_IW1>
0.0685808

>  <vsurf_IW2>
0.688794

>  <vsurf_IW3>
1.12036

>  <vsurf_IW4>
1.0854

>  <vsurf_IW5>
0.986862

>  <vsurf_IW6>
1.03694

>  <vsurf_IW7>
2.419

>  <vsurf_IW8>
0

>  <vsurf_R>
1.44333

>  <vsurf_S>
564.061

>  <vsurf_V>
814.125

>  <vsurf_W1>
1373.63

>  <vsurf_W2>
838.75

>  <vsurf_W3>
434.375

>  <vsurf_W4>
140.375

>  <vsurf_W5>
42.625

>  <vsurf_W6>
11.625

>  <vsurf_W7>
1.125

>  <vsurf_W8>
0

>  <vsurf_Wp1>
1034

>  <vsurf_Wp2>
438.25

>  <vsurf_Wp3>
76.875

>  <vsurf_Wp4>
15.375

>  <vsurf_Wp5>
5.625

>  <vsurf_Wp6>
1.75

>  <vsurf_Wp7>
0

>  <vsurf_Wp8>
0

>  <dens>
1.08903

>  <glob>
0.0655903

>  <std_dim1>
4.50238

>  <std_dim2>
1.44449

>  <std_dim3>
1.15309

>  <vol>
348.375

>  <logP(o/w)>
2.234

$$$$
D2.cdx
  MOE2008           3D

 46 49  0  0  0  0  0  0  0  0999 V2000
   -5.8880  -13.3240    0.5820 C   0  0  0  0  0  0  0  0  0  0  0  0
   -6.5290  -12.8350    1.3120 H   0  0  0  0  0  0  0  0  0  0  0  0
   -6.3720  -13.5950   -0.6950 C   0  0  0  0  0  0  0  0  0  0  0  0
   -7.3910  -13.3120   -0.9480 H   0  0  0  0  0  0  0  0  0  0  0  0
   -5.5640  -14.2240   -1.6460 C   0  0  0  0  0  0  0  0  0  0  0  0
   -4.2590  -14.5730   -1.2780 C   0  0  0  0  0  0  0  0  0  0  0  0
   -3.7430  -14.3130   -0.0070 C   0  0  0  0  0  0  0  0  0  0  0  0
   -4.5800  -13.6750    0.9370 C   0  0  0  0  0  0  0  0  0  0  0  0
   -4.2130  -13.4570    1.9370 H   0  0  0  0  0  0  0  0  0  0  0  0
   -3.2650  -15.1930   -1.9990 N   0  0  0  0  0  0  0  0  0  0  0  0
   -3.3650  -15.5000   -2.9580 H   0  0  0  0  0  0  0  0  0  0  0  0
   -2.1390  -15.3280   -1.2330 C   0  0  0  0  0  0  0  0  0  0  0  0
   -1.2560  -15.7990   -1.6480 H   0  0  0  0  0  0  0  0  0  0  0  0
   -2.3930  -14.7930    0.0170 C   0  0  0  0  0  0  0  0  0  0  0  0
   -1.4450  -14.7330    1.1220 C   0  0  0  0  0  0  0  0  0  0  0  0
   -0.0420  -15.2760    0.9390 C   0  0  0  0  0  0  0  0  0  0  0  0
    0.9410  -14.3660    0.5620 N   0  0  0  0  0  0  0  0  0  0  0  0
    2.3080  -14.8320    0.3250 C   0  0  0  0  0  0  0  0  0  0  0  0
    2.4130  -15.8910    0.5810 H   0  0  0  0  0  0  0  0  0  0  0  0
    2.4930  -14.7310   -0.7510 H   0  0  0  0  0  0  0  0  0  0  0  0
    3.3340  -14.0010    1.1100 C   0  0  0  0  0  0  0  0  0  0  0  0
    4.3370  -14.3050    0.8050 H   0  0  0  0  0  0  0  0  0  0  0  0
    3.2300  -14.1890    2.1850 H   0  0  0  0  0  0  0  0  0  0  0  0
    3.1150  -12.5590    0.9070 N   0  0  0  0  0  0  0  0  0  0  0  0
    1.7440  -12.1040    1.1580 C   0  0  0  0  0  0  0  0  0  0  0  0
    1.5620  -12.2310    2.2320 H   0  0  0  0  0  0  0  0  0  0  0  0
    1.6280  -11.0400    0.9280 H   0  0  0  0  0  0  0  0  0  0  0  0
    0.7290  -12.9250    0.3550 C   0  0  0  0  0  0  0  0  0  0  0  0
    0.8590  -12.7390   -0.7170 H   0  0  0  0  0  0  0  0  0  0  0  0
   -0.2850  -12.6220    0.6230 H   0  0  0  0  0  0  0  0  0  0  0  0
    4.0710  -11.6330    0.4980 C   0  0  0  0  0  0  0  0  0  0  0  0
    5.4880  -12.0540    0.4270 C   0  0  0  0  0  0  0  0  0  0  0  0
    6.1620  -12.4650    1.5820 C   0  0  0  0  0  0  0  0  0  0  0  0
    5.6510  -12.4990    2.5400 H   0  0  0  0  0  0  0  0  0  0  0  0
    7.5060  -12.8290    1.4980 C   0  0  0  0  0  0  0  0  0  0  0  0
    8.0390  -13.1550    2.3880 H   0  0  0  0  0  0  0  0  0  0  0  0
    8.1730  -12.7640    0.2720 C   0  0  0  0  0  0  0  0  0  0  0  0
    9.2210  -13.0440    0.2110 H   0  0  0  0  0  0  0  0  0  0  0  0
    7.5010  -12.3310   -0.8730 C   0  0  0  0  0  0  0  0  0  0  0  0
    8.0290  -12.2700   -1.8220 H   0  0  0  0  0  0  0  0  0  0  0  0
    6.1570  -11.9670   -0.7970 C   0  0  0  0  0  0  0  0  0  0  0  0
    5.6350  -11.6180   -1.6850 H   0  0  0  0  0  0  0  0  0  0  0  0
   -1.7120  -14.2400    2.2150 O   0  0  0  0  0  0  0  0  0  0  0  0
    0.1270  -16.4770    1.1180 O   0  0  0  0  0  0  0  0  0  0  0  0
    3.8190  -10.4740    0.1850 O   0  0  0  0  0  0  0  0  0  0  0  0
   -6.1800  -14.5490   -3.2200 Cl  0  0  0  0  0  0  0  0  0  0  0  0
  1  2  1  0  0  0  0
  1  3  1  0  0  0  0
  1  8  2  0  0  0  0
  3  4  1  0  0  0  0
  3  5  2  0  0  0  0
  5  6  1  0  0  0  0
  5 46  1  0  0  0  0
  6  7  2  0  0  0  0
  6 10  1  0  0  0  0
  7  8  1  0  0  0  0
  7 14  1  0  0  0  0
  8  9  1  0  0  0  0
 10 11  1  0  0  0  0
 10 12  1  0  0  0  0
 12 13  1  0  0  0  0
 12 14  2  0  0  0  0
 14 15  1  0  0  0  0
 15 16  1  0  0  0  0
 15 43  2  0  0  0  0
 16 17  1  0  0  0  0
 16 44  2  0  0  0  0
 17 18  1  0  0  0  0
 17 28  1  0  0  0  0
 18 19  1  0  0  0  0
 18 20  1  0  0  0  0
 18 21  1  0  0  0  0
 21 22  1  0  0  0  0
 21 23  1  0  0  0  0
 21 24  1  0  0  0  0
 24 25  1  0  0  0  0
 24 31  1  0  0  0  0
 25 26  1  0  0  0  0
 25 27  1  0  0  0  0
 25 28  1  0  0  0  0
 28 29  1  0  0  0  0
 28 30  1  0  0  0  0
 31 32  1  0  0  0  0
 31 45  2  0  0  0  0
 32 33  1  0  0  0  0
 32 41  2  0  0  0  0
 33 34  1  0  0  0  0
 33 35  2  0  0  0  0
 35 36  1  0  0  0  0
 35 37  1  0  0  0  0
 37 38  1  0  0  0  0
 37 39  2  0  0  0  0
 39 40  1  0  0  0  0
 39 41  1  0  0  0  0
 41 42  1  0  0  0  0
M  END
>  <Activity>
8.3565

>  <AM1_dipole>
3.93536

>  <AM1_E>
-112772

>  <AM1_Eele>
-821284

>  <AM1_HF>
21.637

>  <AM1_HOMO>
-8.95887

>  <AM1_IP>
8.95887

>  <AM1_LUMO>
-0.65264

>  <diameter>
15

>  <petitjean>
0.466667

>  <petitjeanSC>
0.875

>  <radius>
8

>  <VDistEq>
3.68215

>  <VDistMa>
9.29035

>  <weinerPath>
2228

>  <weinerPol>
47

>  <BCUT_PEOE_0>
-2.71189

>  <BCUT_PEOE_1>
-0.639481

>  <BCUT_PEOE_2>
0.645736

>  <BCUT_PEOE_3>
2.65023

>  <BCUT_SLOGP_0>
-2.86001

>  <BCUT_SLOGP_1>
-0.53808

>  <BCUT_SLOGP_2>
0.805915

>  <BCUT_SLOGP_3>
2.50356

>  <BCUT_SMR_0>
-2.43203

>  <BCUT_SMR_1>
-0.425341

>  <BCUT_SMR_2>
0.854311

>  <BCUT_SMR_3>
2.92025

>  <GCUT_PEOE_0>
-0.856935

>  <GCUT_PEOE_1>
-0.403742

>  <GCUT_PEOE_2>
0.080099

>  <GCUT_PEOE_3>
2.64947

>  <GCUT_SLOGP_0>
-0.976483

>  <GCUT_SLOGP_1>
-0.300717

>  <GCUT_SLOGP_2>
0.164454

>  <GCUT_SLOGP_3>
2.63913

>  <GCUT_SMR_0>
-0.508911

>  <GCUT_SMR_1>
-0.216057

>  <GCUT_SMR_2>
0.230047

>  <GCUT_SMR_3>
2.92389

>  <a_aro>
15

>  <a_count>
46

>  <a_IC>
77.2768

>  <a_ICM>
1.67993

>  <a_nH>
18

>  <b_1rotN>
5

>  <b_1rotR>
0.16129

>  <b_ar>
16

>  <b_count>
49

>  <b_double>
3

>  <b_rotN>
5

>  <b_rotR>
0.16129

>  <b_single>
30

>  <b_triple>
0

>  <chi0v>
15.7776

>  <chi0v_C>
12.0246

>  <chi1v>
9.37349

>  <chi1v_C>
5.94338

>  <chiral>
0

>  <chiral_u>
0

>  <nmol>
1

>  <reactive>
0

>  <rings>
4

>  <Weight>
395.846

>  <a_heavy>
28

>  <a_nB>
0

>  <a_nBr>
0

>  <a_nC>
21

>  <a_nCl>
1

>  <a_nF>
0

>  <a_nI>
0

>  <a_nN>
3

>  <a_nO>
3

>  <a_nP>
0

>  <a_nS>
0

>  <b_heavy>
31

>  <chi0>
19.673

>  <chi0_C>
13.8112

>  <chi1>
13.5586

>  <chi1_C>
8.04124

>  <FCharge>
0

>  <VAdjEq>
0.398935

>  <VAdjMa>
5.9542

>  <zagreb>
150

>  <balabanJ>
1.28268

>  <PEOE_PC+>
2.35556

>  <PEOE_PC->
-2.35556

>  <PEOE_RPC+>
0.125278

>  <PEOE_RPC->
0.152329

>  <PEOE_VSA+0>
73.9323

>  <PEOE_VSA+1>
85.9394

>  <PEOE_VSA+2>
0

>  <PEOE_VSA+3>
8.61901

>  <PEOE_VSA+4>
0

>  <PEOE_VSA+5>
34.3576

>  <PEOE_VSA+6>
0

>  <PEOE_VSA-0>
36.7647

>  <PEOE_VSA-1>
90.8565

>  <PEOE_VSA-2>
0

>  <PEOE_VSA-3>
0

>  <PEOE_VSA-4>
0

>  <PEOE_VSA-5>
40.7008

>  <PEOE_VSA-6>
0.136891

>  <PEOE_VSA_FHYD>
0.797485

>  <PEOE_VSA_FNEG>
0.453691

>  <PEOE_VSA_FPNEG>
0.109983

>  <PEOE_VSA_FPOL>
0.202515

>  <PEOE_VSA_FPOS>
0.546309

>  <PEOE_VSA_FPPOS>
0.0925314

>  <PEOE_VSA_HYD>
296.112

>  <PEOE_VSA_NEG>
168.459

>  <PEOE_VSA_PNEG>
40.8377

>  <PEOE_VSA_POL>
75.1952

>  <PEOE_VSA_POS>
202.848

>  <PEOE_VSA_PPOS>
34.3576

>  <PC+>
4.946

>  <PC->
-4.947

>  <Q_PC+>
4.946

>  <Q_PC->
-4.947

>  <Q_RPC+>
0.132632

>  <Q_RPC->
0.133414

>  <Q_VSA_FHYD>
0.587424

>  <Q_VSA_FNEG>
0.522414

>  <Q_VSA_FPNEG>
0.154715

>  <Q_VSA_FPOL>
0.412576

>  <Q_VSA_FPOS>
0.477586

>  <Q_VSA_FPPOS>
0.257862

>  <Q_VSA_HYD>
218.115

>  <Q_VSA_NEG>
193.976

>  <Q_VSA_PNEG>
57.4467

>  <Q_VSA_POL>
153.193

>  <Q_VSA_POS>
177.331

>  <Q_VSA_PPOS>
95.7459

>  <RPC+>
0.132632

>  <RPC->
0.133414

>  <lip_acc>
6

>  <lip_don>
1

>  <lip_druglike>
1

>  <lip_violation>
0

>  <opr_brigid>
22

>  <opr_leadlike>
1

>  <opr_nring>
4

>  <opr_nrot>
5

>  <opr_violation>
0

>  <E>
91.7521

>  <E_ang>
7.91486

>  <E_ele>
30.157

>  <E_nb>
75.884

>  <E_oop>
0.0390041

>  <E_sol>
-20.9145

>  <E_stb>
0.227795

>  <E_str>
5.85657

>  <E_strain>
0.00550657

>  <E_tor>
1.82981

>  <E_vdw>
45.727

>  <E_rele>
0

>  <E_rnb>
-2.84217e-014

>  <E_rsol>
-2.84217e-014

>  <E_rvdw>
0

>  <Kier1>
21.2404

>  <Kier2>
9.42769

>  <Kier3>
4.54179

>  <KierA1>
15.4057

>  <KierA2>
6.75023

>  <KierA3>
3.22214

>  <KierFlex>
3.71401

>  <logS>
-4.76388

>  <MNDO_dipole>
3.5241

>  <MNDO_E>
-112542

>  <MNDO_Eele>
-812697

>  <MNDO_HF>
-23.4836

>  <MNDO_HOMO>
-9.058

>  <MNDO_IP>
9.058

>  <MNDO_LUMO>
-0.74556

>  <apol>
56.8483

>  <bpol>
27.5917

>  <mr>
10.7841

>  <dipole>
0.836841

>  <dipoleX>
0.567452

>  <dipoleY>
-0.34498

>  <dipoleZ>
-0.509204

>  <pmi>
9881.38

>  <pmiX>
8310.08

>  <pmiY>
753.183

>  <pmiZ>
818.117

>  <rgyr>
4.99627

>  <a_acc>
3

>  <a_acid>
0

>  <a_base>
0

>  <a_don>
1

>  <a_hyd>
19

>  <vsa_acc>
40.7008

>  <vsa_acid>
0

>  <vsa_base>
0

>  <vsa_don>
5.68258

>  <vsa_hyd>
275.392

>  <vsa_other>
34.3576

>  <vsa_pol>
46.3833

>  <PM3_dipole>
4.11739

>  <PM3_E>
-102596

>  <PM3_Eele>
-810249

>  <PM3_HF>
-40.934

>  <PM3_HOMO>
-8.82556

>  <PM3_IP>
8.82556

>  <PM3_LUMO>
-0.70767

>  <SlogP>
2.9886

>  <SlogP_VSA0>
0

>  <SlogP_VSA1>
22.4538

>  <SlogP_VSA2>
40.6477

>  <SlogP_VSA3>
73.7583

>  <SlogP_VSA4>
54.0956

>  <SlogP_VSA5>
0

>  <SlogP_VSA6>
3.50061

>  <SlogP_VSA7>
163.077

>  <SlogP_VSA8>
0

>  <SlogP_VSA9>
39.1486

>  <SMR>
10.6565

>  <SMR_VSA0>
71.5866

>  <SMR_VSA1>
6.24863

>  <SMR_VSA2>
16.7855

>  <SMR_VSA3>
9.87176

>  <SMR_VSA4>
4.7171

>  <SMR_VSA5>
158.36

>  <SMR_VSA6>
89.9635

>  <SMR_VSA7>
39.1486

>  <ASA>
643.837

>  <ASA+>
235.281

>  <ASA->
301.301

>  <ASA_H>
495.149

>  <ASA_P>
148.688

>  <CASA+>
1163.7

>  <CASA->
1490.54

>  <DASA>
66.02

>  <DCASA>
326.836

>  <FASA+>
0.365436

>  <FASA->
0.467977

>  <FASA_H>
0.769059

>  <FASA_P>
0.230941

>  <FCASA+>
1.80744

>  <FCASA->
2.31508

>  <VSA>
396.139

>  <TPSA>
73.48

>  <density>
0.78917

>  <vdw_area>
371.307

>  <vdw_vol>
501.598

>  <vsurf_A>
1.83468

>  <vsurf_CP>
0.149455

>  <vsurf_CW1>
2.64237

>  <vsurf_CW2>
2.08332

>  <vsurf_CW3>
1.23675

>  <vsurf_CW4>
0.515165

>  <vsurf_CW5>
0.211323

>  <vsurf_CW6>
0.0598219

>  <vsurf_CW7>
0.00470107

>  <vsurf_CW8>
0

>  <vsurf_D1>
957

>  <vsurf_D2>
557.375

>  <vsurf_D3>
421.75

>  <vsurf_D4>
360.875

>  <vsurf_D5>
312.875

>  <vsurf_D6>
258.75

>  <vsurf_D7>
145.75

>  <vsurf_D8>
81.75

>  <vsurf_DD12>
0.5

>  <vsurf_DD13>
4.84768

>  <vsurf_DD23>
5.02494

>  <vsurf_DW12>
0.707107

>  <vsurf_DW13>
0.5

>  <vsurf_DW23>
1.11803

>  <vsurf_EDmin1>
-2.69774

>  <vsurf_EDmin2>
-2.69737

>  <vsurf_EDmin3>
-2.64329

>  <vsurf_EWmin1>
-5.54423

>  <vsurf_EWmin2>
-5.41403

>  <vsurf_EWmin3>
-5.30538

>  <vsurf_G>
1.35687

>  <vsurf_HB1>
299.25

>  <vsurf_HB2>
328.75

>  <vsurf_HB3>
295.125

>  <vsurf_HB4>
103.75

>  <vsurf_HB5>
33.875

>  <vsurf_HB6>
7.75

>  <vsurf_HB7>
1

>  <vsurf_HB8>
0

>  <vsurf_HL1>
0.0942502

>  <vsurf_HL2>
0.0256321

>  <vsurf_ID1>
0.482989

>  <vsurf_ID2>
0.497563

>  <vsurf_ID3>
0.571501

>  <vsurf_ID4>
0.621462

>  <vsurf_ID5>
0.67257

>  <vsurf_ID6>
0.682661

>  <vsurf_ID7>
0.463133

>  <vsurf_ID8>
0.912111

>  <vsurf_IW1>
0.181221

>  <vsurf_IW2>
0.328791

>  <vsurf_IW3>
0.680651

>  <vsurf_IW4>
1.24236

>  <vsurf_IW5>
1.37109

>  <vsurf_IW6>
2.14237

>  <vsurf_IW7>
3.91021

>  <vsurf_IW8>
0

>  <vsurf_R>
1.44333

>  <vsurf_S>
588.571

>  <vsurf_V>
849.5

>  <vsurf_W1>
1393.88

>  <vsurf_W2>
787.5

>  <vsurf_W3>
374.375

>  <vsurf_W4>
118.75

>  <vsurf_W5>
39.75

>  <vsurf_W6>
9.25

>  <vsurf_W7>
1

>  <vsurf_W8>
0

>  <vsurf_Wp1>
1094.63

>  <vsurf_Wp2>
458.75

>  <vsurf_Wp3>
79.25

>  <vsurf_Wp4>
15

>  <vsurf_Wp5>
5.875

>  <vsurf_Wp6>
1.5

>  <vsurf_Wp7>
0

>  <vsurf_Wp8>
0

>  <dens>
1.09995

>  <glob>
0.0638315

>  <std_dim1>
4.67961

>  <std_dim2>
1.35256

>  <std_dim3>
1.1823

>  <vol>
359.875

>  <logP(o/w)>
2.673

$$$$
D2.cdx
  MOE2008           3D

 46 49  0  0  0  0  0  0  0  0999 V2000
   -6.0230  -17.4390    0.4450 C   0  0  0  0  0  0  0  0  0  0  0  0
   -6.7490  -16.6610    0.2200 H   0  0  0  0  0  0  0  0  0  0  0  0
   -6.3750  -18.4960    1.2800 C   0  0  0  0  0  0  0  0  0  0  0  0
   -7.3790  -18.5270    1.6960 H   0  0  0  0  0  0  0  0  0  0  0  0
   -5.4570  -19.5050    1.5810 C   0  0  0  0  0  0  0  0  0  0  0  0
   -4.1760  -19.4220    1.0190 C   0  0  0  0  0  0  0  0  0  0  0  0
   -3.7930  -18.3740    0.1790 C   0  0  0  0  0  0  0  0  0  0  0  0
   -4.7390  -17.3660   -0.1090 C   0  0  0  0  0  0  0  0  0  0  0  0
   -4.4770  -16.5340   -0.7590 H   0  0  0  0  0  0  0  0  0  0  0  0
   -3.0920  -20.2600    1.1380 N   0  0  0  0  0  0  0  0  0  0  0  0
   -3.0860  -21.1090    1.6870 H   0  0  0  0  0  0  0  0  0  0  0  0
   -2.0370  -19.7790    0.4110 C   0  0  0  0  0  0  0  0  0  0  0  0
   -1.1000  -20.3210    0.3930 H   0  0  0  0  0  0  0  0  0  0  0  0
   -2.4310  -18.6050   -0.2060 C   0  0  0  0  0  0  0  0  0  0  0  0
   -1.5960  -17.7780   -1.0680 C   0  0  0  0  0  0  0  0  0  0  0  0
   -0.1630  -18.1870   -1.3450 C   0  0  0  0  0  0  0  0  0  0  0  0
    0.8240  -17.6010   -0.5590 N   0  0  0  0  0  0  0  0  0  0  0  0
    2.2250  -17.9780   -0.7530 C   0  0  0  0  0  0  0  0  0  0  0  0
    2.5310  -18.5250    0.1470 H   0  0  0  0  0  0  0  0  0  0  0  0
    2.3360  -18.6550   -1.6060 H   0  0  0  0  0  0  0  0  0  0  0  0
    3.1210  -16.7460   -0.9440 C   0  0  0  0  0  0  0  0  0  0  0  0
    2.8970  -16.2610   -1.9020 H   0  0  0  0  0  0  0  0  0  0  0  0
    4.1630  -17.0700   -0.9610 H   0  0  0  0  0  0  0  0  0  0  0  0
    2.8770  -15.7430    0.1070 N   0  0  0  0  0  0  0  0  0  0  0  0
    1.4700  -15.3700    0.2870 C   0  0  0  0  0  0  0  0  0  0  0  0
    1.3460  -14.6770    1.1250 H   0  0  0  0  0  0  0  0  0  0  0  0
    1.1650  -14.8430   -0.6250 H   0  0  0  0  0  0  0  0  0  0  0  0
    0.5890  -16.6060    0.4970 C   0  0  0  0  0  0  0  0  0  0  0  0
   -0.4600  -16.3070    0.5470 H   0  0  0  0  0  0  0  0  0  0  0  0
    0.8410  -17.0910    1.4480 H   0  0  0  0  0  0  0  0  0  0  0  0
    3.8440  -15.1540    0.9180 C   0  0  0  0  0  0  0  0  0  0  0  0
    5.2720  -15.3900    0.6130 C   0  0  0  0  0  0  0  0  0  0  0  0
    6.0790  -15.9900    1.5830 C   0  0  0  0  0  0  0  0  0  0  0  0
    5.6560  -16.2990    2.5350 H   0  0  0  0  0  0  0  0  0  0  0  0
    7.4340  -16.1900    1.3210 C   0  0  0  0  0  0  0  0  0  0  0  0
    8.0690  -16.6600    2.0670 H   0  0  0  0  0  0  0  0  0  0  0  0
    7.9780  -15.7790    0.1020 C   0  0  0  0  0  0  0  0  0  0  0  0
    9.0350  -15.9340   -0.0990 H   0  0  0  0  0  0  0  0  0  0  0  0
    7.1720  -15.1600   -0.8560 C   0  0  0  0  0  0  0  0  0  0  0  0
    7.6040  -14.8310   -1.7980 H   0  0  0  0  0  0  0  0  0  0  0  0
    5.8160  -14.9550   -0.6010 C   0  0  0  0  0  0  0  0  0  0  0  0
    5.1940  -14.4570   -1.3400 H   0  0  0  0  0  0  0  0  0  0  0  0
   -1.9850  -16.7340   -1.5860 O   0  0  0  0  0  0  0  0  0  0  0  0
    0.0260  -19.0150   -2.2300 O   0  0  0  0  0  0  0  0  0  0  0  0
    3.5920  -14.4430    1.8860 O   0  0  0  0  0  0  0  0  0  0  0  0
   -5.9660  -20.9280    2.7180 Br  0  0  0  0  0  0  0  0  0  0  0  0
  1  2  1  0  0  0  0
  1  3  1  0  0  0  0
  1  8  2  0  0  0  0
  3  4  1  0  0  0  0
  3  5  2  0  0  0  0
  5  6  1  0  0  0  0
  5 46  1  0  0  0  0
  6  7  2  0  0  0  0
  6 10  1  0  0  0  0
  7  8  1  0  0  0  0
  7 14  1  0  0  0  0
  8  9  1  0  0  0  0
 10 11  1  0  0  0  0
 10 12  1  0  0  0  0
 12 13  1  0  0  0  0
 12 14  2  0  0  0  0
 14 15  1  0  0  0  0
 15 16  1  0  0  0  0
 15 43  2  0  0  0  0
 16 17  1  0  0  0  0
 16 44  2  0  0  0  0
 17 18  1  0  0  0  0
 17 28  1  0  0  0  0
 18 19  1  0  0  0  0
 18 20  1  0  0  0  0
 18 21  1  0  0  0  0
 21 22  1  0  0  0  0
 21 23  1  0  0  0  0
 21 24  1  0  0  0  0
 24 25  1  0  0  0  0
 24 31  1  0  0  0  0
 25 26  1  0  0  0  0
 25 27  1  0  0  0  0
 25 28  1  0  0  0  0
 28 29  1  0  0  0  0
 28 30  1  0  0  0  0
 31 32  1  0  0  0  0
 31 45  2  0  0  0  0
 32 33  1  0  0  0  0
 32 41  2  0  0  0  0
 33 34  1  0  0  0  0
 33 35  2  0  0  0  0
 35 36  1  0  0  0  0
 35 37  1  0  0  0  0
 37 38  1  0  0  0  0
 37 39  2  0  0  0  0
 39 40  1  0  0  0  0
 39 41  1  0  0  0  0
 41 42  1  0  0  0  0
M  END
>  <Activity>
7.7594

>  <AM1_dipole>
3.56484

>  <AM1_E>
-112299

>  <AM1_Eele>
-820389

>  <AM1_HF>
9.98817

>  <AM1_HOMO>
-9.03241

>  <AM1_IP>
9.03241

>  <AM1_LUMO>
-0.71251

>  <diameter>
15

>  <petitjean>
0.466667

>  <petitjeanSC>
0.875

>  <radius>
8

>  <VDistEq>
3.68215

>  <VDistMa>
9.29035

>  <weinerPath>
2228

>  <weinerPol>
47

>  <BCUT_PEOE_0>
-2.71189

>  <BCUT_PEOE_1>
-0.639458

>  <BCUT_PEOE_2>
0.647474

>  <BCUT_PEOE_3>
2.65023

>  <BCUT_SLOGP_0>
-2.86001

>  <BCUT_SLOGP_1>
-0.53808

>  <BCUT_SLOGP_2>
0.805915

>  <BCUT_SLOGP_3>
2.50356

>  <BCUT_SMR_0>
-2.43203

>  <BCUT_SMR_1>
-0.423929

>  <BCUT_SMR_2>
0.854311

>  <BCUT_SMR_3>
2.92025

>  <GCUT_PEOE_0>
-0.857757

>  <GCUT_PEOE_1>
-0.403742

>  <GCUT_PEOE_2>
0.080099

>  <GCUT_PEOE_3>
2.6491

>  <GCUT_SLOGP_0>
-0.976483

>  <GCUT_SLOGP_1>
-0.305397

>  <GCUT_SLOGP_2>
0.164454

>  <GCUT_SLOGP_3>
2.64039

>  <GCUT_SMR_0>
-0.508911

>  <GCUT_SMR_1>
-0.216057

>  <GCUT_SMR_2>
0.23209

>  <GCUT_SMR_3>
2.92608

>  <a_aro>
15

>  <a_count>
46

>  <a_IC>
77.2768

>  <a_ICM>
1.67993

>  <a_nH>
18

>  <b_1rotN>
5

>  <b_1rotR>
0.16129

>  <b_ar>
16

>  <b_count>
49

>  <b_double>
3

>  <b_rotN>
5

>  <b_rotR>
0.16129

>  <b_single>
30

>  <b_triple>
0

>  <chi0v>
16.6077

>  <chi0v_C>
12.0246

>  <chi1v>
9.78853

>  <chi1v_C>
5.94338

>  <chiral>
0

>  <chiral_u>
0

>  <nmol>
1

>  <reactive>
0

>  <rings>
4

>  <Weight>
440.297

>  <a_heavy>
28

>  <a_nB>
0

>  <a_nBr>
1

>  <a_nC>
21

>  <a_nCl>
0

>  <a_nF>
0

>  <a_nI>
0

>  <a_nN>
3

>  <a_nO>
3

>  <a_nP>
0

>  <a_nS>
0

>  <b_heavy>
31

>  <chi0>
19.673

>  <chi0_C>
13.8112

>  <chi1>
13.5586

>  <chi1_C>
8.04124

>  <FCharge>
0

>  <VAdjEq>
0.398935

>  <VAdjMa>
5.9542

>  <zagreb>
150

>  <balabanJ>
1.28268

>  <PEOE_PC+>
2.32733

>  <PEOE_PC->
-2.32733

>  <PEOE_RPC+>
0.126798

>  <PEOE_RPC->
0.154294

>  <PEOE_VSA+0>
76.1845

>  <PEOE_VSA+1>
81.4197

>  <PEOE_VSA+2>
0

>  <PEOE_VSA+3>
8.61901

>  <PEOE_VSA+4>
0

>  <PEOE_VSA+5>
34.3576

>  <PEOE_VSA+6>
0

>  <PEOE_VSA-0>
80.3896

>  <PEOE_VSA-1>
61.2745

>  <PEOE_VSA-2>
0

>  <PEOE_VSA-3>
0

>  <PEOE_VSA-4>
0

>  <PEOE_VSA-5>
40.7008

>  <PEOE_VSA-6>
0.136891

>  <PEOE_VSA_FHYD>
0.80371

>  <PEOE_VSA_FNEG>
0.476403

>  <PEOE_VSA_FPNEG>
0.106603

>  <PEOE_VSA_FPOL>
0.19629

>  <PEOE_VSA_FPOS>
0.523597

>  <PEOE_VSA_FPPOS>
0.0896872

>  <PEOE_VSA_HYD>
307.887

>  <PEOE_VSA_NEG>
182.502

>  <PEOE_VSA_PNEG>
40.8377

>  <PEOE_VSA_POL>
75.1952

>  <PEOE_VSA_POS>
200.581

>  <PEOE_VSA_PPOS>
34.3576

>  <PC+>
4.88

>  <PC->
-4.881

>  <Q_PC+>
4.88

>  <Q_PC->
-4.881

>  <Q_RPC+>
0.134426

>  <Q_RPC->
0.135218

>  <Q_VSA_FHYD>
0.600106

>  <Q_VSA_FNEG>
0.543013

>  <Q_VSA_FPNEG>
0.149959

>  <Q_VSA_FPOL>
0.399894

>  <Q_VSA_FPOS>
0.456987

>  <Q_VSA_FPPOS>
0.249935

>  <Q_VSA_HYD>
229.89

>  <Q_VSA_NEG>
208.019

>  <Q_VSA_PNEG>
57.4467

>  <Q_VSA_POL>
153.193

>  <Q_VSA_POS>
175.064

>  <Q_VSA_PPOS>
95.7459

>  <RPC+>
0.134426

>  <RPC->
0.135218

>  <lip_acc>
6

>  <lip_don>
1

>  <lip_druglike>
1

>  <lip_violation>
0

>  <opr_brigid>
22

>  <opr_leadlike>
1

>  <opr_nring>
4

>  <opr_nrot>
5

>  <opr_violation>
0

>  <E>
92.1102

>  <E_ang>
7.9766

>  <E_ele>
30.3709

>  <E_nb>
76.1818

>  <E_oop>
0.0301432

>  <E_sol>
-20.6225

>  <E_stb>
0.242047

>  <E_str>
5.84363

>  <E_strain>
0.00403658

>  <E_tor>
1.83593

>  <E_vdw>
45.811

>  <E_rele>
0

>  <E_rnb>
0

>  <E_rsol>
0

>  <E_rvdw>
0

>  <Kier1>
21.2404

>  <Kier2>
9.42769

>  <Kier3>
4.54179

>  <KierA1>
16.0228

>  <KierA2>
7.03228

>  <KierA3>
3.36075

>  <KierFlex>
4.02418

>  <logS>
-5.11998

>  <MNDO_dipole>
3.66585

>  <MNDO_E>
-112381

>  <MNDO_Eele>
-810735

>  <MNDO_HF>
3.22699

>  <MNDO_HOMO>
-9.01747

>  <MNDO_IP>
9.01747

>  <MNDO_LUMO>
-0.71574

>  <apol>
57.7183

>  <bpol>
28.4617

>  <mr>
11.0338

>  <dipole>
0.878133

>  <dipoleX>
0.599224

>  <dipoleY>
-0.610842

>  <dipoleZ>
0.197285

>  <pmi>
12174.6

>  <pmiX>
9376.97

>  <pmiY>
1913.85

>  <pmiZ>
883.765

>  <rgyr>
5.25841

>  <a_acc>
3

>  <a_acid>
0

>  <a_base>
0

>  <a_don>
1

>  <a_hyd>
19

>  <vsa_acc>
40.7008

>  <vsa_acid>
0

>  <vsa_base>
0

>  <vsa_don>
5.68258

>  <vsa_hyd>
287.168

>  <vsa_other>
34.3576

>  <vsa_pol>
46.3833

>  <PM3_dipole>
3.99792

>  <PM3_E>
-103441

>  <PM3_Eele>
-811057

>  <PM3_HF>
-26.4503

>  <PM3_HOMO>
-8.98218

>  <PM3_IP>
8.98218

>  <PM3_LUMO>
-0.73184

>  <SlogP>
3.0977

>  <SlogP_VSA0>
0

>  <SlogP_VSA1>
22.4538

>  <SlogP_VSA2>
40.6477

>  <SlogP_VSA3>
73.7583

>  <SlogP_VSA4>
54.0956

>  <SlogP_VSA5>
3.0551

>  <SlogP_VSA6>
0

>  <SlogP_VSA7>
163.077

>  <SlogP_VSA8>
0

>  <SlogP_VSA9>
45.9541

>  <SMR>
10.9255

>  <SMR_VSA0>
71.5866

>  <SMR_VSA1>
6.24863

>  <SMR_VSA2>
19.8406

>  <SMR_VSA3>
6.37115

>  <SMR_VSA4>
4.7171

>  <SMR_VSA5>
158.36

>  <SMR_VSA6>
89.9635

>  <SMR_VSA7>
45.9541

>  <ASA>
656.672

>  <ASA+>
232.654

>  <ASA->
318.682

>  <ASA_H>
509.27

>  <ASA_P>
147.402

>  <CASA+>
1135.35

>  <CASA->
1555.49

>  <DASA>
86.0285

>  <DCASA>
420.138

>  <FASA+>
0.354292

>  <FASA->
0.485299

>  <FASA_H>
0.775532

>  <FASA_P>
0.224468

>  <FCASA+>
1.72894

>  <FCASA->
2.36874

>  <VSA>
404.006

>  <TPSA>
73.48

>  <density>
0.855561

>  <vdw_area>
383.082

>  <vdw_vol>
514.63

>  <vsurf_A>
1.95346

>  <vsurf_CP>
0.159233

>  <vsurf_CW1>
2.64602

>  <vsurf_CW2>
2.10481

>  <vsurf_CW3>
1.22671

>  <vsurf_CW4>
0.504752

>  <vsurf_CW5>
0.199597

>  <vsurf_CW6>
0.0570828

>  <vsurf_CW7>
0.00636946

>  <vsurf_CW8>
0

>  <vsurf_D1>
988.375

>  <vsurf_D2>
579.375

>  <vsurf_D3>
431.375

>  <vsurf_D4>
372

>  <vsurf_D5>
321.125

>  <vsurf_D6>
264.25

>  <vsurf_D7>
157.25

>  <vsurf_D8>
84

>  <vsurf_DD12>
0.5

>  <vsurf_DD13>
0.5

>  <vsurf_DD23>
1

>  <vsurf_DW12>
0.5

>  <vsurf_DW13>
0.707107

>  <vsurf_DW23>
0.866025

>  <vsurf_EDmin1>
-2.71841

>  <vsurf_EDmin2>
-2.68914

>  <vsurf_EDmin3>
-2.68417

>  <vsurf_EWmin1>
-5.46494

>  <vsurf_EWmin2>
-5.42723

>  <vsurf_EWmin3>
-5.4085

>  <vsurf_G>
1.36149

>  <vsurf_HB1>
305.125

>  <vsurf_HB2>
336.625

>  <vsurf_HB3>
292

>  <vsurf_HB4>
103.625

>  <vsurf_HB5>
30.875

>  <vsurf_HB6>
7.5

>  <vsurf_HB7>
1.25

>  <vsurf_HB8>
0

>  <vsurf_HL1>
0.0851927

>  <vsurf_HL2>
0.0248656

>  <vsurf_ID1>
0.62585

>  <vsurf_ID2>
0.61041

>  <vsurf_ID3>
0.827391

>  <vsurf_ID4>
0.897829

>  <vsurf_ID5>
0.981541

>  <vsurf_ID6>
0.973894

>  <vsurf_ID7>
0.292239

>  <vsurf_ID8>
0.510755

>  <vsurf_IW1>
0.701859

>  <vsurf_IW2>
0.805441

>  <vsurf_IW3>
1.18885

>  <vsurf_IW4>
1.73844

>  <vsurf_IW5>
2.00553

>  <vsurf_IW6>
2.76686

>  <vsurf_IW7>
3.96488

>  <vsurf_IW8>
0

>  <vsurf_R>
1.4458

>  <vsurf_S>
596.642

>  <vsurf_V>
862.625

>  <vsurf_W1>
1423

>  <vsurf_W2>
803

>  <vsurf_W3>
372.25

>  <vsurf_W4>
117.625

>  <vsurf_W5>
36.75

>  <vsurf_W6>
9.25

>  <vsurf_W7>
1.25

>  <vsurf_W8>
0

>  <vsurf_Wp1>
1117.88

>  <vsurf_Wp2>
466.375

>  <vsurf_Wp3>
80.25

>  <vsurf_Wp4>
14

>  <vsurf_Wp5>
5.875

>  <vsurf_Wp6>
1.75

>  <vsurf_Wp7>
0

>  <vsurf_Wp8>
0

>  <dens>
1.18439

>  <glob>
0.0618592

>  <std_dim1>
4.70326

>  <std_dim2>
1.35723

>  <std_dim3>
1.16977

>  <vol>
371.75

>  <logP(o/w)>
2.879

$$$$
D3.cdx
  MOE2008           3D

 49 52  0  0  0  0  0  0  0  0999 V2000
   -6.0240   17.8930   -0.6900 C   0  0  0  0  0  0  0  0  0  0  0  0
   -6.8560   18.5900   -0.7510 H   0  0  0  0  0  0  0  0  0  0  0  0
   -6.1160   16.6480   -1.3070 C   0  0  0  0  0  0  0  0  0  0  0  0
   -7.0290   16.3980   -1.8440 H   0  0  0  0  0  0  0  0  0  0  0  0
   -5.0670   15.7110   -1.2530 C   0  0  0  0  0  0  0  0  0  0  0  0
   -3.9180   16.1010   -0.5380 C   0  0  0  0  0  0  0  0  0  0  0  0
   -3.7940   17.3430    0.0940 C   0  0  0  0  0  0  0  0  0  0  0  0
   -4.8710   18.2510    0.0110 C   0  0  0  0  0  0  0  0  0  0  0  0
   -4.8110   19.2240    0.4920 H   0  0  0  0  0  0  0  0  0  0  0  0
   -2.7460   15.4190   -0.2990 N   0  0  0  0  0  0  0  0  0  0  0  0
   -2.5500   14.4850   -0.6310 H   0  0  0  0  0  0  0  0  0  0  0  0
   -1.8890   16.1810    0.4480 C   0  0  0  0  0  0  0  0  0  0  0  0
   -0.9190   15.7890    0.7270 H   0  0  0  0  0  0  0  0  0  0  0  0
   -2.5040   17.3880    0.7200 C   0  0  0  0  0  0  0  0  0  0  0  0
   -1.9290   18.4790    1.4980 C   0  0  0  0  0  0  0  0  0  0  0  0
   -0.5350   18.3360    2.0830 C   0  0  0  0  0  0  0  0  0  0  0  0
    0.5150   18.8960    1.3580 N   0  0  0  0  0  0  0  0  0  0  0  0
    1.8840   18.7340    1.8510 C   0  0  0  0  0  0  0  0  0  0  0  0
    2.0900   19.5970    2.4950 H   0  0  0  0  0  0  0  0  0  0  0  0
    1.9570   17.8350    2.4710 H   0  0  0  0  0  0  0  0  0  0  0  0
    2.9030   18.6720    0.7090 C   0  0  0  0  0  0  0  0  0  0  0  0
    2.7140   17.7810    0.0990 H   0  0  0  0  0  0  0  0  0  0  0  0
    3.9160   18.5980    1.1180 H   0  0  0  0  0  0  0  0  0  0  0  0
    2.8120   19.8320   -0.1900 N   0  0  0  0  0  0  0  0  0  0  0  0
    1.5370   20.5550   -0.2060 C   0  0  0  0  0  0  0  0  0  0  0  0
    1.6190   21.3470    0.5490 H   0  0  0  0  0  0  0  0  0  0  0  0
    1.3930   21.0420   -1.1770 H   0  0  0  0  0  0  0  0  0  0  0  0
    0.3410   19.6520    0.1110 C   0  0  0  0  0  0  0  0  0  0  0  0
    0.2090   18.9110   -0.6860 H   0  0  0  0  0  0  0  0  0  0  0  0
   -0.5720   20.2520    0.1620 H   0  0  0  0  0  0  0  0  0  0  0  0
    3.8490   20.3020   -0.9940 C   0  0  0  0  0  0  0  0  0  0  0  0
    5.0950   19.5070   -1.0870 C   0  0  0  0  0  0  0  0  0  0  0  0
    5.0730   18.2090   -1.6070 C   0  0  0  0  0  0  0  0  0  0  0  0
    4.1430   17.7620   -1.9450 H   0  0  0  0  0  0  0  0  0  0  0  0
    6.2640   17.4890   -1.7050 C   0  0  0  0  0  0  0  0  0  0  0  0
    6.2580   16.4780   -2.1050 H   0  0  0  0  0  0  0  0  0  0  0  0
    7.4670   18.0700   -1.3000 C   0  0  0  0  0  0  0  0  0  0  0  0
    8.3940   17.5080   -1.3810 H   0  0  0  0  0  0  0  0  0  0  0  0
    7.4870   19.3750   -0.8030 C   0  0  0  0  0  0  0  0  0  0  0  0
    8.4290   19.8270   -0.5020 H   0  0  0  0  0  0  0  0  0  0  0  0
    6.3010   20.1010   -0.7020 C   0  0  0  0  0  0  0  0  0  0  0  0
    6.3180   21.1210   -0.3270 H   0  0  0  0  0  0  0  0  0  0  0  0
   -2.5150   19.5370    1.7140 O   0  0  0  0  0  0  0  0  0  0  0  0
   -0.4240   17.7230    3.1390 O   0  0  0  0  0  0  0  0  0  0  0  0
    3.8020   21.3500   -1.6330 O   0  0  0  0  0  0  0  0  0  0  0  0
   -5.2350   14.3840   -1.9350 C   0  0  0  0  0  0  0  0  0  0  0  0
   -5.4470   14.5320   -2.9990 H   0  0  0  0  0  0  0  0  0  0  0  0
   -6.0640   13.8320   -1.4800 H   0  0  0  0  0  0  0  0  0  0  0  0
   -4.3350   13.7680   -1.8570 H   0  0  0  0  0  0  0  0  0  0  0  0
  1  2  1  0  0  0  0
  1  3  1  0  0  0  0
  1  8  2  0  0  0  0
  3  4  1  0  0  0  0
  3  5  2  0  0  0  0
  5  6  1  0  0  0  0
  5 46  1  0  0  0  0
  6  7  2  0  0  0  0
  6 10  1  0  0  0  0
  7  8  1  0  0  0  0
  7 14  1  0  0  0  0
  8  9  1  0  0  0  0
 10 11  1  0  0  0  0
 10 12  1  0  0  0  0
 12 13  1  0  0  0  0
 12 14  2  0  0  0  0
 14 15  1  0  0  0  0
 15 16  1  0  0  0  0
 15 43  2  0  0  0  0
 16 17  1  0  0  0  0
 16 44  2  0  0  0  0
 17 18  1  0  0  0  0
 17 28  1  0  0  0  0
 18 19  1  0  0  0  0
 18 20  1  0  0  0  0
 18 21  1  0  0  0  0
 21 22  1  0  0  0  0
 21 23  1  0  0  0  0
 21 24  1  0  0  0  0
 24 25  1  0  0  0  0
 24 31  1  0  0  0  0
 25 26  1  0  0  0  0
 25 27  1  0  0  0  0
 25 28  1  0  0  0  0
 28 29  1  0  0  0  0
 28 30  1  0  0  0  0
 31 32  1  0  0  0  0
 31 45  2  0  0  0  0
 32 33  1  0  0  0  0
 32 41  2  0  0  0  0
 33 34  1  0  0  0  0
 33 35  2  0  0  0  0
 35 36  1  0  0  0  0
 35 37  1  0  0  0  0
 37 38  1  0  0  0  0
 37 39  2  0  0  0  0
 39 40  1  0  0  0  0
 39 41  1  0  0  0  0
 41 42  1  0  0  0  0
 46 47  1  0  0  0  0
 46 48  1  0  0  0  0
 46 49  1  0  0  0  0
M  END
>  <Activity>
7.0481

>  <AM1_dipole>
5.65868

>  <AM1_E>
-108060

>  <AM1_Eele>
-821802

>  <AM1_HF>
-4.74371

>  <AM1_HOMO>
-8.75546

>  <AM1_IP>
8.75546

>  <AM1_LUMO>
-0.47751

>  <diameter>
15

>  <petitjean>
0.466667

>  <petitjeanSC>
0.875

>  <radius>
8

>  <VDistEq>
3.68215

>  <VDistMa>
9.29035

>  <weinerPath>
2228

>  <weinerPol>
47

>  <BCUT_PEOE_0>
-2.71189

>  <BCUT_PEOE_1>
-0.636018

>  <BCUT_PEOE_2>
0.613766

>  <BCUT_PEOE_3>
2.65024

>  <BCUT_SLOGP_0>
-2.86001

>  <BCUT_SLOGP_1>
-0.53808

>  <BCUT_SLOGP_2>
0.676709

>  <BCUT_SLOGP_3>
2.50382

>  <BCUT_SMR_0>
-2.43203

>  <BCUT_SMR_1>
-0.419099

>  <BCUT_SMR_2>
0.778445

>  <BCUT_SMR_3>
2.92027

>  <GCUT_PEOE_0>
-0.860095

>  <GCUT_PEOE_1>
-0.403741

>  <GCUT_PEOE_2>
0.080099

>  <GCUT_PEOE_3>
2.67666

>  <GCUT_SLOGP_0>
-0.976489

>  <GCUT_SLOGP_1>
-0.3044

>  <GCUT_SLOGP_2>
0.137693

>  <GCUT_SLOGP_3>
2.67279

>  <GCUT_SMR_0>
-0.508935

>  <GCUT_SMR_1>
-0.216057

>  <GCUT_SMR_2>
0.193051

>  <GCUT_SMR_3>
2.95145

>  <a_aro>
15

>  <a_count>
49

>  <a_IC>
75.2648

>  <a_ICM>
1.53602

>  <a_nH>
21

>  <b_1rotN>
5

>  <b_1rotR>
0.16129

>  <b_ar>
16

>  <b_count>
52

>  <b_double>
3

>  <b_rotN>
5

>  <b_rotR>
0.16129

>  <b_single>
33

>  <b_triple>
0

>  <chi0v>
15.6438

>  <chi0v_C>
13.0246

>  <chi1v>
9.30655

>  <chi1v_C>
6.44338

>  <chiral>
0

>  <chiral_u>
0

>  <nmol>
1

>  <reactive>
0

>  <rings>
4

>  <Weight>
375.428

>  <a_heavy>
28

>  <a_nB>
0

>  <a_nBr>
0

>  <a_nC>
22

>  <a_nCl>
0

>  <a_nF>
0

>  <a_nI>
0

>  <a_nN>
3

>  <a_nO>
3

>  <a_nP>
0

>  <a_nS>
0

>  <b_heavy>
31

>  <chi0>
19.673

>  <chi0_C>
14.8112

>  <chi1>
13.5586

>  <chi1_C>
8.61859

>  <FCharge>
0

>  <VAdjEq>
0.398935

>  <VAdjMa>
5.9542

>  <zagreb>
150

>  <balabanJ>
1.28268

>  <PEOE_PC+>
2.35609

>  <PEOE_PC->
-2.35609

>  <PEOE_RPC+>
0.125249

>  <PEOE_RPC->
0.152686

>  <PEOE_VSA+0>
86.7285

>  <PEOE_VSA+1>
81.4197

>  <PEOE_VSA+2>
0

>  <PEOE_VSA+3>
8.61901

>  <PEOE_VSA+4>
0

>  <PEOE_VSA+5>
34.3576

>  <PEOE_VSA+6>
0

>  <PEOE_VSA-0>
45.466

>  <PEOE_VSA-1>
73.5294

>  <PEOE_VSA-2>
0

>  <PEOE_VSA-3>
0

>  <PEOE_VSA-4>
0

>  <PEOE_VSA-5>
40.7008

>  <PEOE_VSA-6>
0.136891

>  <PEOE_VSA_FHYD>
0.797294

>  <PEOE_VSA_FNEG>
0.430866

>  <PEOE_VSA_FPNEG>
0.110087

>  <PEOE_VSA_FPOL>
0.202706

>  <PEOE_VSA_FPOS>
0.569134

>  <PEOE_VSA_FPPOS>
0.0926186

>  <PEOE_VSA_HYD>
295.763

>  <PEOE_VSA_NEG>
159.833

>  <PEOE_VSA_PNEG>
40.8377

>  <PEOE_VSA_POL>
75.1952

>  <PEOE_VSA_POS>
211.125

>  <PEOE_VSA_PPOS>
34.3576

>  <PC+>
4.913

>  <PC->
-4.914

>  <Q_PC+>
4.913

>  <Q_PC->
-4.914

>  <Q_RPC+>
0.133523

>  <Q_RPC->
0.13431

>  <Q_VSA_FHYD>
0.587035

>  <Q_VSA_FNEG>
0.449115

>  <Q_VSA_FPNEG>
0.15486

>  <Q_VSA_FPOL>
0.412965

>  <Q_VSA_FPOS>
0.550885

>  <Q_VSA_FPPOS>
0.258105

>  <Q_VSA_HYD>
217.765

>  <Q_VSA_NEG>
166.603

>  <Q_VSA_PNEG>
57.4467

>  <Q_VSA_POL>
153.193

>  <Q_VSA_POS>
204.355

>  <Q_VSA_PPOS>
95.7459

>  <RPC+>
0.133523

>  <RPC->
0.13431

>  <lip_acc>
6

>  <lip_don>
1

>  <lip_druglike>
1

>  <lip_violation>
0

>  <opr_brigid>
22

>  <opr_leadlike>
1

>  <opr_nring>
4

>  <opr_nrot>
5

>  <opr_violation>
0

>  <E>
95.6174

>  <E_ang>
6.9616

>  <E_ele>
31.0669

>  <E_nb>
78.1619

>  <E_oop>
0.0441509

>  <E_sol>
-19.692

>  <E_stb>
0.202705

>  <E_str>
6.28324

>  <E_strain>
0.00384723

>  <E_tor>
3.96387

>  <E_vdw>
47.095

>  <E_rele>
0

>  <E_rnb>
7.10543e-014

>  <E_rsol>
7.10543e-014

>  <E_rvdw>
0

>  <Kier1>
21.2404

>  <Kier2>
9.42769

>  <Kier3>
4.54179

>  <KierA1>
14.5633

>  <KierA2>
6.36575

>  <KierA3>
3.03337

>  <KierFlex>
3.31095

>  <logS>
-4.19006

>  <MNDO_dipole>
6.33745

>  <MNDO_E>
-108299

>  <MNDO_Eele>
-814348

>  <MNDO_HF>
-22.8942

>  <MNDO_HOMO>
-8.81166

>  <MNDO_IP>
8.81166

>  <MNDO_LUMO>
-0.52535

>  <apol>
58.4287

>  <bpol>
30.4513

>  <mr>
10.7301

>  <dipole>
1.57775

>  <dipoleX>
0.571554

>  <dipoleY>
-1.37179

>  <dipoleZ>
-0.529922

>  <pmi>
8381.3

>  <pmiX>
6609.49

>  <pmiY>
1097.06

>  <pmiZ>
674.745

>  <rgyr>
4.7249

>  <a_acc>
3

>  <a_acid>
0

>  <a_base>
0

>  <a_don>
1

>  <a_hyd>
19

>  <vsa_acc>
40.7008

>  <vsa_acid>
0

>  <vsa_base>
0

>  <vsa_don>
5.68258

>  <vsa_hyd>
272.908

>  <vsa_other>
34.3576

>  <vsa_pol>
46.3833

>  <PM3_dipole>
6.50058

>  <PM3_E>
-99094.6

>  <PM3_Eele>
-803900

>  <PM3_HF>
-40.3597

>  <PM3_HOMO>
-8.72518

>  <PM3_IP>
8.72518

>  <PM3_LUMO>
-0.54462

>  <SlogP>
2.64362

>  <SlogP_VSA0>
0

>  <SlogP_VSA1>
22.4538

>  <SlogP_VSA2>
40.6477

>  <SlogP_VSA3>
73.7583

>  <SlogP_VSA4>
57.2812

>  <SlogP_VSA5>
0

>  <SlogP_VSA6>
0

>  <SlogP_VSA7>
163.077

>  <SlogP_VSA8>
0

>  <SlogP_VSA9>
33.326

>  <SMR>
10.6292

>  <SMR_VSA0>
71.5866

>  <SMR_VSA1>
6.24863

>  <SMR_VSA2>
16.7855

>  <SMR_VSA3>
9.55672

>  <SMR_VSA4>
4.7171

>  <SMR_VSA5>
158.36

>  <SMR_VSA6>
89.9635

>  <SMR_VSA7>
33.326

>  <ASA>
646.599

>  <ASA+>
248.934

>  <ASA->
237.7

>  <ASA_H>
497.142

>  <ASA_P>
149.457

>  <CASA+>
1223.01

>  <CASA->
1168.06

>  <DASA>
11.2344

>  <DCASA>
54.9571

>  <FASA+>
0.38499

>  <FASA->
0.367616

>  <FASA_H>
0.768857

>  <FASA_P>
0.231143

>  <FCASA+>
1.89146

>  <FCASA->
1.80646

>  <VSA>
397.923

>  <TPSA>
73.48

>  <density>
0.736031

>  <vdw_area>
370.958

>  <vdw_vol>
510.071

>  <vsurf_A>
3.15112

>  <vsurf_CP>
0.160389

>  <vsurf_CW1>
2.63308

>  <vsurf_CW2>
2.0098

>  <vsurf_CW3>
1.24642

>  <vsurf_CW4>
0.513084

>  <vsurf_CW5>
0.20503

>  <vsurf_CW6>
0.0629241

>  <vsurf_CW7>
0.00338058

>  <vsurf_CW8>
0

>  <vsurf_D1>
912.125

>  <vsurf_D2>
544.75

>  <vsurf_D3>
417

>  <vsurf_D4>
357.5

>  <vsurf_D5>
310

>  <vsurf_D6>
241.75

>  <vsurf_D7>
133.625

>  <vsurf_D8>
77.625

>  <vsurf_DD12>
0.5

>  <vsurf_DD13>
3.20156

>  <vsurf_DD23>
3.53553

>  <vsurf_DW12>
5.78792

>  <vsurf_DW13>
5.5

>  <vsurf_DW23>
0.5

>  <vsurf_EDmin1>
-2.71371

>  <vsurf_EDmin2>
-2.68111

>  <vsurf_EDmin3>
-2.67329

>  <vsurf_EWmin1>
-5.3557

>  <vsurf_EWmin2>
-5.30626

>  <vsurf_EWmin3>
-5.27673

>  <vsurf_G>
1.35434

>  <vsurf_HB1>
305.5

>  <vsurf_HB2>
327.5

>  <vsurf_HB3>
293.25

>  <vsurf_HB4>
102.625

>  <vsurf_HB5>
32.125

>  <vsurf_HB6>
8.375

>  <vsurf_HB7>
0.875

>  <vsurf_HB8>
0

>  <vsurf_HL1>
0.0905276

>  <vsurf_HL2>
0.0272727

>  <vsurf_ID1>
0.944684

>  <vsurf_ID2>
0.985951

>  <vsurf_ID3>
1.08632

>  <vsurf_ID4>
1.20857

>  <vsurf_ID5>
1.31194

>  <vsurf_ID6>
1.26255

>  <vsurf_ID7>
0.937351

>  <vsurf_ID8>
0.812976

>  <vsurf_IW1>
0.0658626

>  <vsurf_IW2>
0.742052

>  <vsurf_IW3>
1.32675

>  <vsurf_IW4>
1.94082

>  <vsurf_IW5>
2.06881

>  <vsurf_IW6>
2.57305

>  <vsurf_IW7>
3.3269

>  <vsurf_IW8>
0

>  <vsurf_R>
1.44539

>  <vsurf_S>
586.952

>  <vsurf_V>
848.375

>  <vsurf_W1>
1364

>  <vsurf_W2>
777

>  <vsurf_W3>
371.25

>  <vsurf_W4>
116.875

>  <vsurf_W5>
37.75

>  <vsurf_W6>
9.75

>  <vsurf_W7>
0.875

>  <vsurf_W8>
0

>  <vsurf_Wp1>
1058.5

>  <vsurf_Wp2>
449.5

>  <vsurf_Wp3>
78

>  <vsurf_Wp4>
14.25

>  <vsurf_Wp5>
5.625

>  <vsurf_Wp6>
1.375

>  <vsurf_Wp7>
0

>  <vsurf_Wp8>
0

>  <dens>
1.03246

>  <glob>
0.0636804

>  <std_dim1>
4.61465

>  <std_dim2>
1.77128

>  <std_dim3>
1.16451

>  <vol>
363.625

>  <logP(o/w)>
2.379

$$$$
D3.cdx
  MOE2008           3D

 52 55  0  0  0  0  0  0  0  0999 V2000
   -5.8970   14.6980    0.0690 C   0  0  0  0  0  0  0  0  0  0  0  0
   -6.7070   15.4000   -0.1160 H   0  0  0  0  0  0  0  0  0  0  0  0
   -6.0390   13.7190    1.0490 C   0  0  0  0  0  0  0  0  0  0  0  0
   -6.9690   13.6770    1.6120 H   0  0  0  0  0  0  0  0  0  0  0  0
   -5.0190   12.7890    1.3240 C   0  0  0  0  0  0  0  0  0  0  0  0
   -3.8510   12.8960    0.5430 C   0  0  0  0  0  0  0  0  0  0  0  0
   -3.6770   13.8660   -0.4490 C   0  0  0  0  0  0  0  0  0  0  0  0
   -4.7230   14.7830   -0.6830 C   0  0  0  0  0  0  0  0  0  0  0  0
   -4.6250   15.5500   -1.4480 H   0  0  0  0  0  0  0  0  0  0  0  0
   -2.7030   12.1360    0.5590 N   0  0  0  0  0  0  0  0  0  0  0  0
   -2.5480   11.3500    1.1750 H   0  0  0  0  0  0  0  0  0  0  0  0
   -1.8110   12.5930   -0.3730 C   0  0  0  0  0  0  0  0  0  0  0  0
   -0.8530   12.1030   -0.4920 H   0  0  0  0  0  0  0  0  0  0  0  0
   -2.3800   13.6690   -1.0290 C   0  0  0  0  0  0  0  0  0  0  0  0
   -1.7580   14.4360   -2.1010 C   0  0  0  0  0  0  0  0  0  0  0  0
   -0.3640   14.0710   -2.5800 C   0  0  0  0  0  0  0  0  0  0  0  0
    0.6980   14.7990   -2.0490 N   0  0  0  0  0  0  0  0  0  0  0  0
    2.0650   14.4460   -2.4360 C   0  0  0  0  0  0  0  0  0  0  0  0
    2.1130   13.3930   -2.7330 H   0  0  0  0  0  0  0  0  0  0  0  0
    2.3080   15.0500   -3.3190 H   0  0  0  0  0  0  0  0  0  0  0  0
    3.0710   14.7240   -1.3150 C   0  0  0  0  0  0  0  0  0  0  0  0
    4.0840   14.4930   -1.6590 H   0  0  0  0  0  0  0  0  0  0  0  0
    2.8460   14.0840   -0.4550 H   0  0  0  0  0  0  0  0  0  0  0  0
    3.0130   16.1150   -0.8380 N   0  0  0  0  0  0  0  0  0  0  0  0
    1.7630   16.8410   -1.0770 C   0  0  0  0  0  0  0  0  0  0  0  0
    1.6270   17.6160   -0.3150 H   0  0  0  0  0  0  0  0  0  0  0  0
    1.8760   17.3470   -2.0430 H   0  0  0  0  0  0  0  0  0  0  0  0
    0.5390   15.9190   -1.1110 C   0  0  0  0  0  0  0  0  0  0  0  0
   -0.3530   16.4970   -1.3660 H   0  0  0  0  0  0  0  0  0  0  0  0
    0.3780   15.4750   -0.1220 H   0  0  0  0  0  0  0  0  0  0  0  0
    4.0590   16.7880   -0.2100 C   0  0  0  0  0  0  0  0  0  0  0  0
    5.2770   16.0300    0.1550 C   0  0  0  0  0  0  0  0  0  0  0  0
    6.5050   16.4330   -0.3780 C   0  0  0  0  0  0  0  0  0  0  0  0
    6.5590   17.2780   -1.0600 H   0  0  0  0  0  0  0  0  0  0  0  0
    7.6660   15.7440   -0.0280 C   0  0  0  0  0  0  0  0  0  0  0  0
    8.6240   16.0480   -0.4410 H   0  0  0  0  0  0  0  0  0  0  0  0
    7.5980   14.6680    0.8590 C   0  0  0  0  0  0  0  0  0  0  0  0
    8.5060   14.1350    1.1330 H   0  0  0  0  0  0  0  0  0  0  0  0
    6.3730   14.2830    1.4080 C   0  0  0  0  0  0  0  0  0  0  0  0
    6.3310   13.4540    2.1100 H   0  0  0  0  0  0  0  0  0  0  0  0
    5.2080   14.9680    1.0630 C   0  0  0  0  0  0  0  0  0  0  0  0
    4.2610   14.6800    1.5100 H   0  0  0  0  0  0  0  0  0  0  0  0
   -2.3030   15.3870   -2.6550 O   0  0  0  0  0  0  0  0  0  0  0  0
   -0.2640   13.1500   -3.3840 O   0  0  0  0  0  0  0  0  0  0  0  0
    4.0420   17.9870    0.0560 O   0  0  0  0  0  0  0  0  0  0  0  0
   -5.2270   11.7350    2.3830 C   0  0  0  0  0  0  0  0  0  0  0  0
   -4.2720   11.5120    2.8720 H   0  0  0  0  0  0  0  0  0  0  0  0
   -5.8880   12.1220    3.1680 H   0  0  0  0  0  0  0  0  0  0  0  0
   -5.8130   10.4590    1.7990 C   0  0  0  0  0  0  0  0  0  0  0  0
   -5.1520   10.0290    1.0380 H   0  0  0  0  0  0  0  0  0  0  0  0
   -6.7860   10.6450    1.3320 H   0  0  0  0  0  0  0  0  0  0  0  0
   -5.9530    9.7120    2.5870 H   0  0  0  0  0  0  0  0  0  0  0  0
  1  2  1  0  0  0  0
  1  3  1  0  0  0  0
  1  8  2  0  0  0  0
  3  4  1  0  0  0  0
  3  5  2  0  0  0  0
  5  6  1  0  0  0  0
  5 46  1  0  0  0  0
  6  7  2  0  0  0  0
  6 10  1  0  0  0  0
  7  8  1  0  0  0  0
  7 14  1  0  0  0  0
  8  9  1  0  0  0  0
 10 11  1  0  0  0  0
 10 12  1  0  0  0  0
 12 13  1  0  0  0  0
 12 14  2  0  0  0  0
 14 15  1  0  0  0  0
 15 16  1  0  0  0  0
 15 43  2  0  0  0  0
 16 17  1  0  0  0  0
 16 44  2  0  0  0  0
 17 18  1  0  0  0  0
 17 28  1  0  0  0  0
 18 19  1  0  0  0  0
 18 20  1  0  0  0  0
 18 21  1  0  0  0  0
 21 22  1  0  0  0  0
 21 23  1  0  0  0  0
 21 24  1  0  0  0  0
 24 25  1  0  0  0  0
 24 31  1  0  0  0  0
 25 26  1  0  0  0  0
 25 27  1  0  0  0  0
 25 28  1  0  0  0  0
 28 29  1  0  0  0  0
 28 30  1  0  0  0  0
 31 32  1  0  0  0  0
 31 45  2  0  0  0  0
 32 33  1  0  0  0  0
 32 41  2  0  0  0  0
 33 34  1  0  0  0  0
 33 35  2  0  0  0  0
 35 36  1  0  0  0  0
 35 37  1  0  0  0  0
 37 38  1  0  0  0  0
 37 39  2  0  0  0  0
 39 40  1  0  0  0  0
 39 41  1  0  0  0  0
 41 42  1  0  0  0  0
 46 47  1  0  0  0  0
 46 48  1  0  0  0  0
 46 49  1  0  0  0  0
 49 50  1  0  0  0  0
 49 51  1  0  0  0  0
 49 52  1  0  0  0  0
M  END
>  <Activity>
7.6161

>  <AM1_dipole>
5.74117

>  <AM1_E>
-111653

>  <AM1_Eele>
-870067

>  <AM1_HF>
-10.374

>  <AM1_HOMO>
-8.76758

>  <AM1_IP>
8.76758

>  <AM1_LUMO>
-0.47547

>  <diameter>
16

>  <petitjean>
0.5

>  <petitjeanSC>
1

>  <radius>
8

>  <VDistEq>
3.73149

>  <VDistMa>
9.39237

>  <weinerPath>
2461

>  <weinerPol>
49

>  <BCUT_PEOE_0>
-2.71189

>  <BCUT_PEOE_1>
-0.635305

>  <BCUT_PEOE_2>
0.613124

>  <BCUT_PEOE_3>
2.65025

>  <BCUT_SLOGP_0>
-2.86001

>  <BCUT_SLOGP_1>
-0.53808

>  <BCUT_SLOGP_2>
0.676692

>  <BCUT_SLOGP_3>
2.5072

>  <BCUT_SMR_0>
-2.43203

>  <BCUT_SMR_1>
-0.418664

>  <BCUT_SMR_2>
0.776842

>  <BCUT_SMR_3>
2.92029

>  <GCUT_PEOE_0>
-0.860112

>  <GCUT_PEOE_1>
-0.403741

>  <GCUT_PEOE_2>
0.080099

>  <GCUT_PEOE_3>
2.70211

>  <GCUT_SLOGP_0>
-0.976491

>  <GCUT_SLOGP_1>
-0.301363

>  <GCUT_SLOGP_2>
0.137693

>  <GCUT_SLOGP_3>
2.70816

>  <GCUT_SMR_0>
-0.513098

>  <GCUT_SMR_1>
-0.215251

>  <GCUT_SMR_2>
0.193051

>  <GCUT_SMR_3>
2.97771

>  <a_aro>
15

>  <a_count>
52

>  <a_IC>
78.8292

>  <a_ICM>
1.51595

>  <a_nH>
23

>  <b_1rotN>
6

>  <b_1rotR>
0.1875

>  <b_ar>
16

>  <b_count>
55

>  <b_double>
3

>  <b_rotN>
6

>  <b_rotR>
0.1875

>  <b_single>
36

>  <b_triple>
0

>  <chi0v>
16.3509

>  <chi0v_C>
13.7317

>  <chi1v>
9.86721

>  <chi1v_C>
7.00404

>  <chiral>
0

>  <chiral_u>
0

>  <nmol>
1

>  <reactive>
0

>  <rings>
4

>  <Weight>
389.455

>  <a_heavy>
29

>  <a_nB>
0

>  <a_nBr>
0

>  <a_nC>
23

>  <a_nCl>
0

>  <a_nF>
0

>  <a_nI>
0

>  <a_nN>
3

>  <a_nO>
3

>  <a_nP>
0

>  <a_nS>
0

>  <b_heavy>
32

>  <chi0>
20.3801

>  <chi0_C>
15.5183

>  <chi1>
14.0966

>  <chi1_C>
9.1566

>  <FCharge>
0

>  <VAdjEq>
0.388286

>  <VAdjMa>
6

>  <zagreb>
154

>  <balabanJ>
1.28524

>  <PEOE_PC+>
2.40501

>  <PEOE_PC->
-2.40501

>  <PEOE_RPC+>
0.122702

>  <PEOE_RPC->
0.149577

>  <PEOE_VSA+0>
95.2592

>  <PEOE_VSA+1>
81.4197

>  <PEOE_VSA+2>
0

>  <PEOE_VSA+3>
8.61901

>  <PEOE_VSA+4>
0

>  <PEOE_VSA+5>
34.3576

>  <PEOE_VSA+6>
0

>  <PEOE_VSA-0>
35.4197

>  <PEOE_VSA-1>
92.2771

>  <PEOE_VSA-2>
0

>  <PEOE_VSA-3>
0

>  <PEOE_VSA-4>
0

>  <PEOE_VSA-5>
40.7008

>  <PEOE_VSA-6>
0.136891

>  <PEOE_VSA_FHYD>
0.806293

>  <PEOE_VSA_FNEG>
0.434155

>  <PEOE_VSA_FPNEG>
0.1052

>  <PEOE_VSA_FPOL>
0.193707

>  <PEOE_VSA_FPOS>
0.565845

>  <PEOE_VSA_FPPOS>
0.0885072

>  <PEOE_VSA_HYD>
312.995

>  <PEOE_VSA_NEG>
168.534

>  <PEOE_VSA_PNEG>
40.8377

>  <PEOE_VSA_POL>
75.1952

>  <PEOE_VSA_POS>
219.655

>  <PEOE_VSA_PPOS>
34.3576

>  <PC+>
4.913

>  <PC->
-4.914

>  <Q_PC+>
4.913

>  <Q_PC->
-4.914

>  <Q_RPC+>
0.133523

>  <Q_RPC->
0.13431

>  <Q_VSA_FHYD>
0.605367

>  <Q_VSA_FNEG>
0.429178

>  <Q_VSA_FPNEG>
0.147986

>  <Q_VSA_FPOL>
0.394633

>  <Q_VSA_FPOS>
0.570822

>  <Q_VSA_FPPOS>
0.246647

>  <Q_VSA_HYD>
234.997

>  <Q_VSA_NEG>
166.603

>  <Q_VSA_PNEG>
57.4467

>  <Q_VSA_POL>
153.193

>  <Q_VSA_POS>
221.587

>  <Q_VSA_PPOS>
95.7459

>  <RPC+>
0.133523

>  <RPC->
0.13431

>  <lip_acc>
6

>  <lip_don>
1

>  <lip_druglike>
1

>  <lip_violation>
0

>  <opr_brigid>
22

>  <opr_leadlike>
1

>  <opr_nring>
4

>  <opr_nrot>
6

>  <opr_violation>
0

>  <E>
94.514

>  <E_ang>
7.13734

>  <E_ele>
31.0477

>  <E_nb>
79.0837

>  <E_oop>
0.046978

>  <E_sol>
-19.3309

>  <E_stb>
0.221644

>  <E_str>
6.44015

>  <E_strain>
0.00478317

>  <E_tor>
1.5842

>  <E_vdw>
48.036

>  <E_rele>
0

>  <E_rnb>
-3.55271e-014

>  <E_rsol>
-3.55271e-014

>  <E_rvdw>
0

>  <Kier1>
22.2031

>  <Kier2>
10.08

>  <Kier3>
4.76896

>  <KierA1>
15.4407

>  <KierA2>
6.91129

>  <KierA3>
3.23572

>  <KierFlex>
3.67983

>  <logS>
-4.70528

>  <MNDO_dipole>
6.37288

>  <MNDO_E>
-111906

>  <MNDO_Eele>
-861980

>  <MNDO_HF>
-27.1888

>  <MNDO_HOMO>
-8.80024

>  <MNDO_IP>
8.80024

>  <MNDO_LUMO>
-0.51842

>  <apol>
61.5222

>  <bpol>
32.6378

>  <mr>
11.2076

>  <dipole>
1.58304

>  <dipoleX>
0.516188

>  <dipoleY>
-1.15369

>  <dipoleZ>
0.953193

>  <pmi>
9242.42

>  <pmiX>
7249.6

>  <pmiY>
1150.22

>  <pmiZ>
842.6

>  <rgyr>
4.87152

>  <a_acc>
3

>  <a_acid>
0

>  <a_base>
0

>  <a_don>
1

>  <a_hyd>
20

>  <vsa_acc>
40.7008

>  <vsa_acid>
0

>  <vsa_base>
0

>  <vsa_don>
5.68258

>  <vsa_hyd>
288.716

>  <vsa_other>
34.3576

>  <vsa_pol>
46.3833

>  <PM3_dipole>
5.86212

>  <PM3_E>
-102542

>  <PM3_Eele>
-852515

>  <PM3_HF>
-44.4738

>  <PM3_HOMO>
-8.72434

>  <PM3_IP>
8.72434

>  <PM3_LUMO>
-0.53749

>  <SlogP>
2.89757

>  <SlogP_VSA0>
0

>  <SlogP_VSA1>
22.4538

>  <SlogP_VSA2>
40.6477

>  <SlogP_VSA3>
73.7583

>  <SlogP_VSA4>
57.2812

>  <SlogP_VSA5>
18.8684

>  <SlogP_VSA6>
0

>  <SlogP_VSA7>
163.077

>  <SlogP_VSA8>
0

>  <SlogP_VSA9>
33.326

>  <SMR>
11.0933

>  <SMR_VSA0>
71.5866

>  <SMR_VSA1>
6.24863

>  <SMR_VSA2>
16.7855

>  <SMR_VSA3>
9.55672

>  <SMR_VSA4>
4.7171

>  <SMR_VSA5>
177.228

>  <SMR_VSA6>
89.9635

>  <SMR_VSA7>
33.326

>  <ASA>
678.223

>  <ASA+>
228.543

>  <ASA->
236.09

>  <ASA_H>
530.098

>  <ASA_P>
148.125

>  <CASA+>
1122.83

>  <CASA->
1160.15

>  <DASA>
7.54711

>  <DCASA>
37.3151

>  <FASA+>
0.336973

>  <FASA->
0.348101

>  <FASA_H>
0.781599

>  <FASA_P>
0.218401

>  <FCASA+>
1.65555

>  <FCASA->
1.71057

>  <VSA>
420.028

>  <TPSA>
73.48

>  <density>
0.728634

>  <vdw_area>
388.19

>  <vdw_vol>
534.5

>  <vsurf_A>
3.27035

>  <vsurf_CP>
0.160064

>  <vsurf_CW1>
2.60644

>  <vsurf_CW2>
1.9527

>  <vsurf_CW3>
1.18823

>  <vsurf_CW4>
0.493617

>  <vsurf_CW5>
0.200282

>  <vsurf_CW6>
0.0602561

>  <vsurf_CW7>
0.00395871

>  <vsurf_CW8>
0

>  <vsurf_D1>
946

>  <vsurf_D2>
565.625

>  <vsurf_D3>
432.875

>  <vsurf_D4>
378

>  <vsurf_D5>
327.75

>  <vsurf_D6>
251.625

>  <vsurf_D7>
139.125

>  <vsurf_D8>
77.75

>  <vsurf_DD12>
4.06202

>  <vsurf_DD13>
0.5

>  <vsurf_DD23>
4.38748

>  <vsurf_DW12>
5.24404

>  <vsurf_DW13>
0.5

>  <vsurf_DW23>
5.5

>  <vsurf_EDmin1>
-2.64571

>  <vsurf_EDmin2>
-2.63905

>  <vsurf_EDmin3>
-2.63878

>  <vsurf_EWmin1>
-5.47677

>  <vsurf_EWmin2>
-5.33322

>  <vsurf_EWmin3>
-5.28097

>  <vsurf_G>
1.37201

>  <vsurf_HB1>
320.375

>  <vsurf_HB2>
336.375

>  <vsurf_HB3>
291.75

>  <vsurf_HB4>
103.875

>  <vsurf_HB5>
33.125

>  <vsurf_HB6>
7.5

>  <vsurf_HB7>
0.875

>  <vsurf_HB8>
0

>  <vsurf_HL1>
0.0912504

>  <vsurf_HL2>
0.0248016

>  <vsurf_ID1>
0.948856

>  <vsurf_ID2>
0.994467

>  <vsurf_ID3>
1.11202

>  <vsurf_ID4>
1.23

>  <vsurf_ID5>
1.33862

>  <vsurf_ID6>
1.27915

>  <vsurf_ID7>
0.894408

>  <vsurf_ID8>
0.650304

>  <vsurf_IW1>
0.184226

>  <vsurf_IW2>
0.881467

>  <vsurf_IW3>
1.45316

>  <vsurf_IW4>
2.04542

>  <vsurf_IW5>
2.16441

>  <vsurf_IW6>
2.88419

>  <vsurf_IW7>
4.36401

>  <vsurf_IW8>
0

>  <vsurf_R>
1.44715

>  <vsurf_S>
611.72

>  <vsurf_V>
885.25

>  <vsurf_W1>
1395.25

>  <vsurf_W2>
782.25

>  <vsurf_W3>
370.375

>  <vsurf_W4>
118.5

>  <vsurf_W5>
39.5

>  <vsurf_W6>
9.375

>  <vsurf_W7>
0.875

>  <vsurf_W8>
0

>  <vsurf_Wp1>
1074.88

>  <vsurf_Wp2>
445.875

>  <vsurf_Wp3>
78.625

>  <vsurf_Wp4>
14.625

>  <vsurf_Wp5>
6.375

>  <vsurf_Wp6>
1.875

>  <vsurf_Wp7>
0

>  <vsurf_Wp8>
0

>  <dens>
1.02556

>  <glob>
0.0584156

>  <std_dim1>
4.81529

>  <std_dim2>
1.84651

>  <std_dim3>
1.16382

>  <vol>
379.75

>  <logP(o/w)>
2.854

$$$$
D3.cdx
  MOE2008           3D

 50 53  0  0  0  0  0  0  0  0999 V2000
   -5.7960   10.3530   -0.1450 C   0  0  0  0  0  0  0  0  0  0  0  0
   -6.6700   10.9920   -0.2460 H   0  0  0  0  0  0  0  0  0  0  0  0
   -5.8620    9.2130    0.6590 C   0  0  0  0  0  0  0  0  0  0  0  0
   -6.8040    9.0110    1.1610 H   0  0  0  0  0  0  0  0  0  0  0  0
   -4.7600    8.3620    0.8150 C   0  0  0  0  0  0  0  0  0  0  0  0
   -3.5950    8.7200    0.1210 C   0  0  0  0  0  0  0  0  0  0  0  0
   -3.4890    9.8500   -0.6900 C   0  0  0  0  0  0  0  0  0  0  0  0
   -4.6180   10.6840   -0.8220 C   0  0  0  0  0  0  0  0  0  0  0  0
   -4.5800   11.5740   -1.4440 H   0  0  0  0  0  0  0  0  0  0  0  0
   -2.3770    8.0820    0.0850 N   0  0  0  0  0  0  0  0  0  0  0  0
   -2.1750    7.2300    0.5910 H   0  0  0  0  0  0  0  0  0  0  0  0
   -1.5070    8.7610   -0.7210 C   0  0  0  0  0  0  0  0  0  0  0  0
   -0.5000    8.3900   -0.8650 H   0  0  0  0  0  0  0  0  0  0  0  0
   -2.1570    9.8760   -1.2190 C   0  0  0  0  0  0  0  0  0  0  0  0
   -1.5670   10.8710   -2.1050 C   0  0  0  0  0  0  0  0  0  0  0  0
   -0.1280   10.7030   -2.5560 C   0  0  0  0  0  0  0  0  0  0  0  0
    0.8530   11.2650   -1.7420 N   0  0  0  0  0  0  0  0  0  0  0  0
    2.2620   11.0470   -2.0690 C   0  0  0  0  0  0  0  0  0  0  0  0
    2.3750   10.1380   -2.6690 H   0  0  0  0  0  0  0  0  0  0  0  0
    2.5760   11.8940   -2.6910 H   0  0  0  0  0  0  0  0  0  0  0  0
    3.1330   10.9610   -0.8120 C   0  0  0  0  0  0  0  0  0  0  0  0
    4.1840   10.8450   -1.0940 H   0  0  0  0  0  0  0  0  0  0  0  0
    2.8370   10.0870   -0.2220 H   0  0  0  0  0  0  0  0  0  0  0  0
    2.9800   12.1360    0.0600 N   0  0  0  0  0  0  0  0  0  0  0  0
    1.7560   12.9240   -0.1040 C   0  0  0  0  0  0  0  0  0  0  0  0
    1.5150   13.4470    0.8280 H   0  0  0  0  0  0  0  0  0  0  0  0
    1.9760   13.6880   -0.8600 H   0  0  0  0  0  0  0  0  0  0  0  0
    0.5630   12.0750   -0.5510 C   0  0  0  0  0  0  0  0  0  0  0  0
   -0.3030   12.7160   -0.7430 H   0  0  0  0  0  0  0  0  0  0  0  0
    0.2880   11.3720    0.2460 H   0  0  0  0  0  0  0  0  0  0  0  0
    3.9200   12.5600    0.9980 C   0  0  0  0  0  0  0  0  0  0  0  0
    5.1040   11.7100    1.2550 C   0  0  0  0  0  0  0  0  0  0  0  0
    4.9560   10.4210    1.7770 C   0  0  0  0  0  0  0  0  0  0  0  0
    3.9700   10.0200    1.9960 H   0  0  0  0  0  0  0  0  0  0  0  0
    6.0900    9.6500    2.0350 C   0  0  0  0  0  0  0  0  0  0  0  0
    5.9870    8.6460    2.4390 H   0  0  0  0  0  0  0  0  0  0  0  0
    7.3610   10.1710    1.7850 C   0  0  0  0  0  0  0  0  0  0  0  0
    8.2430    9.5700    1.9910 H   0  0  0  0  0  0  0  0  0  0  0  0
    7.5050   11.4670    1.2850 C   0  0  0  0  0  0  0  0  0  0  0  0
    8.4970   11.8730    1.1060 H   0  0  0  0  0  0  0  0  0  0  0  0
    6.3760   12.2430    1.0250 C   0  0  0  0  0  0  0  0  0  0  0  0
    6.4880   13.2570    0.6470 H   0  0  0  0  0  0  0  0  0  0  0  0
   -2.1670   11.8640   -2.5060 O   0  0  0  0  0  0  0  0  0  0  0  0
    0.0750   10.0590   -3.5790 O   0  0  0  0  0  0  0  0  0  0  0  0
    3.8370   13.6110    1.6270 O   0  0  0  0  0  0  0  0  0  0  0  0
   -4.7210    7.2280    1.5780 O   0  0  0  0  0  0  0  0  0  0  0  0
   -5.9250    6.8510    2.2330 C   0  0  0  0  0  0  0  0  0  0  0  0
   -5.7330    5.9200    2.7750 H   0  0  0  0  0  0  0  0  0  0  0  0
   -6.7250    6.6560    1.5100 H   0  0  0  0  0  0  0  0  0  0  0  0
   -6.2280    7.6060    2.9660 H   0  0  0  0  0  0  0  0  0  0  0  0
  1  2  1  0  0  0  0
  1  3  1  0  0  0  0
  1  8  2  0  0  0  0
  3  4  1  0  0  0  0
  3  5  2  0  0  0  0
  5  6  1  0  0  0  0
  5 46  1  0  0  0  0
  6  7  2  0  0  0  0
  6 10  1  0  0  0  0
  7  8  1  0  0  0  0
  7 14  1  0  0  0  0
  8  9  1  0  0  0  0
 10 11  1  0  0  0  0
 10 12  1  0  0  0  0
 12 13  1  0  0  0  0
 12 14  2  0  0  0  0
 14 15  1  0  0  0  0
 15 16  1  0  0  0  0
 15 43  2  0  0  0  0
 16 17  1  0  0  0  0
 16 44  2  0  0  0  0
 17 18  1  0  0  0  0
 17 28  1  0  0  0  0
 18 19  1  0  0  0  0
 18 20  1  0  0  0  0
 18 21  1  0  0  0  0
 21 22  1  0  0  0  0
 21 23  1  0  0  0  0
 21 24  1  0  0  0  0
 24 25  1  0  0  0  0
 24 31  1  0  0  0  0
 25 26  1  0  0  0  0
 25 27  1  0  0  0  0
 25 28  1  0  0  0  0
 28 29  1  0  0  0  0
 28 30  1  0  0  0  0
 31 32  1  0  0  0  0
 31 45  2  0  0  0  0
 32 33  1  0  0  0  0
 32 41  2  0  0  0  0
 33 34  1  0  0  0  0
 33 35  2  0  0  0  0
 35 36  1  0  0  0  0
 35 37  1  0  0  0  0
 37 38  1  0  0  0  0
 37 39  2  0  0  0  0
 39 40  1  0  0  0  0
 39 41  1  0  0  0  0
 41 42  1  0  0  0  0
 46 47  1  0  0  0  0
 47 48  1  0  0  0  0
 47 49  1  0  0  0  0
 47 50  1  0  0  0  0
M  END
>  <Activity>
8.1804

>  <AM1_dipole>
5.34614

>  <AM1_E>
-115439

>  <AM1_Eele>
-878244

>  <AM1_HF>
-34.7728

>  <AM1_HOMO>
-8.61773

>  <AM1_IP>
8.61773

>  <AM1_LUMO>
-0.43518

>  <diameter>
16

>  <petitjean>
0.5

>  <petitjeanSC>
1

>  <radius>
8

>  <VDistEq>
3.73149

>  <VDistMa>
9.39237

>  <weinerPath>
2461

>  <weinerPol>
49

>  <BCUT_PEOE_0>
-2.71189

>  <BCUT_PEOE_1>
-0.608648

>  <BCUT_PEOE_2>
0.609458

>  <BCUT_PEOE_3>
2.65024

>  <BCUT_SLOGP_0>
-2.86001

>  <BCUT_SLOGP_1>
-0.513567

>  <BCUT_SLOGP_2>
0.673433

>  <BCUT_SLOGP_3>
2.50381

>  <BCUT_SMR_0>
-2.43203

>  <BCUT_SMR_1>
-0.413588

>  <BCUT_SMR_2>
0.776816

>  <BCUT_SMR_3>
2.92025

>  <GCUT_PEOE_0>
-0.854887

>  <GCUT_PEOE_1>
-0.399054

>  <GCUT_PEOE_2>
0.0729125

>  <GCUT_PEOE_3>
2.67395

>  <GCUT_SLOGP_0>
-0.97649

>  <GCUT_SLOGP_1>
-0.327444

>  <GCUT_SLOGP_2>
0.137511

>  <GCUT_SLOGP_3>
2.67145

>  <GCUT_SMR_0>
-0.508923

>  <GCUT_SMR_1>
-0.206806

>  <GCUT_SMR_2>
0.181013

>  <GCUT_SMR_3>
2.94686

>  <a_aro>
15

>  <a_count>
50

>  <a_IC>
79.0918

>  <a_ICM>
1.58184

>  <a_nH>
21

>  <b_1rotN>
6

>  <b_1rotR>
0.1875

>  <b_ar>
16

>  <b_count>
53

>  <b_double>
3

>  <b_rotN>
6

>  <b_rotR>
0.1875

>  <b_single>
34

>  <b_triple>
0

>  <chi0v>
16.052

>  <chi0v_C>
13.0246

>  <chi1v>
9.41892

>  <chi1v_C>
5.94338

>  <chiral>
0

>  <chiral_u>
0

>  <nmol>
1

>  <reactive>
0

>  <rings>
4

>  <Weight>
391.427

>  <a_heavy>
29

>  <a_nB>
0

>  <a_nBr>
0

>  <a_nC>
22

>  <a_nCl>
0

>  <a_nF>
0

>  <a_nI>
0

>  <a_nN>
3

>  <a_nO>
4

>  <a_nP>
0

>  <a_nS>
0

>  <b_heavy>
32

>  <chi0>
20.3801

>  <chi0_C>
14.8112

>  <chi1>
14.0966

>  <chi1_C>
8.04124

>  <FCharge>
0

>  <VAdjEq>
0.388286

>  <VAdjMa>
6

>  <zagreb>
154

>  <balabanJ>
1.28524

>  <PEOE_PC+>
2.60629

>  <PEOE_PC->
-2.60629

>  <PEOE_RPC+>
0.113226

>  <PEOE_RPC->
0.137343

>  <PEOE_VSA+0>
98.93

>  <PEOE_VSA+1>
102.674

>  <PEOE_VSA+2>
0

>  <PEOE_VSA+3>
8.61901

>  <PEOE_VSA+4>
0

>  <PEOE_VSA+5>
34.3576

>  <PEOE_VSA+6>
0

>  <PEOE_VSA-0>
36.7647

>  <PEOE_VSA-1>
61.2745

>  <PEOE_VSA-2>
0

>  <PEOE_VSA-3>
0

>  <PEOE_VSA-4>
0

>  <PEOE_VSA-5>
40.7008

>  <PEOE_VSA-6>
2.64065

>  <PEOE_VSA_FHYD>
0.798687

>  <PEOE_VSA_FNEG>
0.366308

>  <PEOE_VSA_FPNEG>
0.112295

>  <PEOE_VSA_FPOL>
0.201313

>  <PEOE_VSA_FPOS>
0.633692

>  <PEOE_VSA_FPPOS>
0.0890182

>  <PEOE_VSA_HYD>
308.263

>  <PEOE_VSA_NEG>
141.381

>  <PEOE_VSA_PNEG>
43.3414

>  <PEOE_VSA_POL>
77.699

>  <PEOE_VSA_POS>
244.581

>  <PEOE_VSA_PPOS>
34.3576

>  <PC+>
5.131

>  <PC->
-5.133

>  <Q_PC+>
5.131

>  <Q_PC->
-5.133

>  <Q_RPC+>
0.12785

>  <Q_RPC->
0.12858

>  <Q_VSA_FHYD>
0.531834

>  <Q_VSA_FNEG>
0.432421

>  <Q_VSA_FPNEG>
0.155327

>  <Q_VSA_FPOL>
0.468166

>  <Q_VSA_FPOS>
0.567579

>  <Q_VSA_FPPOS>
0.312838

>  <Q_VSA_HYD>
205.268

>  <Q_VSA_NEG>
166.898

>  <Q_VSA_PNEG>
59.9504

>  <Q_VSA_POL>
180.694

>  <Q_VSA_POS>
219.064

>  <Q_VSA_PPOS>
120.744

>  <RPC+>
0.12785

>  <RPC->
0.12858

>  <lip_acc>
7

>  <lip_don>
1

>  <lip_druglike>
1

>  <lip_violation>
0

>  <opr_brigid>
22

>  <opr_leadlike>
1

>  <opr_nring>
4

>  <opr_nrot>
6

>  <opr_violation>
0

>  <E>
101.914

>  <E_ang>
13.2164

>  <E_ele>
27.7562

>  <E_nb>
78.5521

>  <E_oop>
0.0653213

>  <E_sol>
-19.8382

>  <E_stb>
0.139389

>  <E_str>
5.81363

>  <E_strain>
0.00466751

>  <E_tor>
4.12718

>  <E_vdw>
50.796

>  <E_rele>
0

>  <E_rnb>
0

>  <E_rsol>
0

>  <E_rvdw>
0

>  <Kier1>
22.2031

>  <Kier2>
10.08

>  <Kier3>
4.76896

>  <KierA1>
15.4407

>  <KierA2>
6.91129

>  <KierA3>
3.23572

>  <KierFlex>
3.67983

>  <logS>
-4.07997

>  <MNDO_dipole>
5.64933

>  <MNDO_E>
-115721

>  <MNDO_Eele>
-871086

>  <MNDO_HF>
-54.8748

>  <MNDO_HOMO>
-8.55579

>  <MNDO_IP>
8.55579

>  <MNDO_LUMO>
-0.44068

>  <apol>
59.2307

>  <bpol>
32.3673

>  <mr>
10.924

>  <dipole>
1.34308

>  <dipoleX>
0.231719

>  <dipoleY>
-1.11398

>  <dipoleZ>
0.7136

>  <pmi>
8951.76

>  <pmiX>
6826.69

>  <pmiY>
1145.35

>  <pmiZ>
979.716

>  <rgyr>
4.78221

>  <a_acc>
4

>  <a_acid>
0

>  <a_base>
0

>  <a_don>
1

>  <a_hyd>
19

>  <vsa_acc>
43.2045

>  <vsa_acid>
0

>  <vsa_base>
0

>  <vsa_don>
5.68258

>  <vsa_hyd>
285.408

>  <vsa_other>
34.3576

>  <vsa_pol>
48.8871

>  <PM3_dipole>
6.04793

>  <PM3_E>
-105856

>  <PM3_Eele>
-864499

>  <PM3_HF>
-69.2386

>  <PM3_HOMO>
-8.57767

>  <PM3_IP>
8.57767

>  <PM3_LUMO>
-0.50184

>  <SlogP>
2.3438

>  <SlogP_VSA0>
10.9999

>  <SlogP_VSA1>
22.4538

>  <SlogP_VSA2>
40.6477

>  <SlogP_VSA3>
73.7583

>  <SlogP_VSA4>
54.0956

>  <SlogP_VSA5>
35.3839

>  <SlogP_VSA6>
0

>  <SlogP_VSA7>
163.077

>  <SlogP_VSA8>
0

>  <SlogP_VSA9>
5.24343

>  <SMR>
10.8107

>  <SMR_VSA0>
71.5866

>  <SMR_VSA1>
17.2485

>  <SMR_VSA2>
16.7855

>  <SMR_VSA3>
11.6146

>  <SMR_VSA4>
4.7171

>  <SMR_VSA5>
158.36

>  <SMR_VSA6>
89.9635

>  <SMR_VSA7>
35.3839

>  <ASA>
661.511

>  <ASA+>
261.972

>  <ASA->
237.868

>  <ASA_H>
472.467

>  <ASA_P>
189.044

>  <CASA+>
1344.18

>  <CASA->
1220.98

>  <DASA>
24.1035

>  <DCASA>
123.2

>  <FASA+>
0.396021

>  <FASA->
0.359584

>  <FASA_H>
0.714224

>  <FASA_P>
0.285776

>  <FCASA+>
2.03198

>  <FCASA->
1.84574

>  <VSA>
408.784

>  <TPSA>
82.71

>  <density>
0.751685

>  <vdw_area>
385.962

>  <vdw_vol>
520.732

>  <vsurf_A>
2.19771

>  <vsurf_CP>
0.13186

>  <vsurf_CW1>
2.62885

>  <vsurf_CW2>
2.01647

>  <vsurf_CW3>
1.28166

>  <vsurf_CW4>
0.55686

>  <vsurf_CW5>
0.250953

>  <vsurf_CW6>
0.0918571

>  <vsurf_CW7>
0.0158995

>  <vsurf_CW8>
0.00194763

>  <vsurf_D1>
927.125

>  <vsurf_D2>
552.125

>  <vsurf_D3>
420.25

>  <vsurf_D4>
362.75

>  <vsurf_D5>
315.25

>  <vsurf_D6>
242.375

>  <vsurf_D7>
138.875

>  <vsurf_D8>
77.625

>  <vsurf_DD12>
0.5

>  <vsurf_DD13>
1.11803

>  <vsurf_DD23>
0.707107

>  <vsurf_DW12>
0.5

>  <vsurf_DW13>
0.5

>  <vsurf_DW23>
0.707107

>  <vsurf_EDmin1>
-2.82055

>  <vsurf_EDmin2>
-2.77501

>  <vsurf_EDmin3>
-2.74918

>  <vsurf_EWmin1>
-6.30335

>  <vsurf_EWmin2>
-6.28356

>  <vsurf_EWmin3>
-6.08878

>  <vsurf_G>
1.36448

>  <vsurf_HB1>
325.875

>  <vsurf_HB2>
351.375

>  <vsurf_HB3>
316.75

>  <vsurf_HB4>
119.375

>  <vsurf_HB5>
44.375

>  <vsurf_HB6>
13.125

>  <vsurf_HB7>
2.625

>  <vsurf_HB8>
0.5

>  <vsurf_HL1>
0.117787

>  <vsurf_HL2>
0.0406616

>  <vsurf_ID1>
0.915751

>  <vsurf_ID2>
0.941328

>  <vsurf_ID3>
1.08611

>  <vsurf_ID4>
1.23979

>  <vsurf_ID5>
1.32963

>  <vsurf_ID6>
1.21832

>  <vsurf_ID7>
0.738622

>  <vsurf_ID8>
0.668704

>  <vsurf_IW1>
0.137964

>  <vsurf_IW2>
0.714773

>  <vsurf_IW3>
1.11759

>  <vsurf_IW4>
1.42887

>  <vsurf_IW5>
1.17874

>  <vsurf_IW6>
0.885858

>  <vsurf_IW7>
3.42405

>  <vsurf_IW8>
5.95814

>  <vsurf_R>
1.44473

>  <vsurf_S>
599.681

>  <vsurf_V>
866.375

>  <vsurf_W1>
1406.38

>  <vsurf_W2>
805.125

>  <vsurf_W3>
400.75

>  <vsurf_W4>
134.75

>  <vsurf_W5>
49.5

>  <vsurf_W6>
14.75

>  <vsurf_W7>
2.625

>  <vsurf_W8>
0.5

>  <vsurf_Wp1>
1080.5

>  <vsurf_Wp2>
453.75

>  <vsurf_Wp3>
84

>  <vsurf_Wp4>
15.375

>  <vsurf_Wp5>
5.125

>  <vsurf_Wp6>
1.625

>  <vsurf_Wp7>
0

>  <vsurf_Wp8>
0

>  <dens>
1.05613

>  <glob>
0.0619418

>  <std_dim1>
4.63373

>  <std_dim2>
1.90747

>  <std_dim3>
1.15325

>  <vol>
370.625

>  <logP(o/w)>
2.037

$$$$
D3.cdx
  MOE2008           3D

 53 56  0  0  0  0  0  0  0  0999 V2000
   -5.4180    5.6890    0.3550 C   0  0  0  0  0  0  0  0  0  0  0  0
   -6.3100    6.3070    0.2880 H   0  0  0  0  0  0  0  0  0  0  0  0
   -5.4070    4.5780    1.1960 C   0  0  0  0  0  0  0  0  0  0  0  0
   -6.2880    4.3460    1.7890 H   0  0  0  0  0  0  0  0  0  0  0  0
   -4.2740    3.7650    1.2880 C   0  0  0  0  0  0  0  0  0  0  0  0
   -3.1460    4.1220    0.5430 C   0  0  0  0  0  0  0  0  0  0  0  0
   -3.1220    5.2280   -0.3070 C   0  0  0  0  0  0  0  0  0  0  0  0
   -4.2870    6.0210   -0.4020 C   0  0  0  0  0  0  0  0  0  0  0  0
   -4.3090    6.8910   -1.0540 H   0  0  0  0  0  0  0  0  0  0  0  0
   -1.9100    3.5260    0.4770 N   0  0  0  0  0  0  0  0  0  0  0  0
   -1.6480    2.7060    1.0070 H   0  0  0  0  0  0  0  0  0  0  0  0
   -1.1080    4.2030   -0.4000 C   0  0  0  0  0  0  0  0  0  0  0  0
   -0.0960    3.8610   -0.5810 H   0  0  0  0  0  0  0  0  0  0  0  0
   -1.8200    5.2770   -0.9050 C   0  0  0  0  0  0  0  0  0  0  0  0
   -1.3090    6.2580   -1.8520 C   0  0  0  0  0  0  0  0  0  0  0  0
    0.1130    6.1290   -2.3660 C   0  0  0  0  0  0  0  0  0  0  0  0
    1.1090    6.7430   -1.6100 N   0  0  0  0  0  0  0  0  0  0  0  0
    2.5080    6.5710   -2.0010 C   0  0  0  0  0  0  0  0  0  0  0  0
    2.6280    5.6520   -2.5840 H   0  0  0  0  0  0  0  0  0  0  0  0
    2.7580    7.4130   -2.6570 H   0  0  0  0  0  0  0  0  0  0  0  0
    3.4420    6.5510   -0.7870 C   0  0  0  0  0  0  0  0  0  0  0  0
    4.4820    6.4680   -1.1180 H   0  0  0  0  0  0  0  0  0  0  0  0
    3.2110    5.6800   -0.1630 H   0  0  0  0  0  0  0  0  0  0  0  0
    3.2860    7.7400    0.0640 N   0  0  0  0  0  0  0  0  0  0  0  0
    2.0220    8.4740   -0.0540 C   0  0  0  0  0  0  0  0  0  0  0  0
    1.8070    9.0080    0.8780 H   0  0  0  0  0  0  0  0  0  0  0  0
    2.1720    9.2280   -0.8360 H   0  0  0  0  0  0  0  0  0  0  0  0
    0.8450    7.5660   -0.4220 C   0  0  0  0  0  0  0  0  0  0  0  0
   -0.0550    8.1660   -0.5820 H   0  0  0  0  0  0  0  0  0  0  0  0
    0.6420    6.8700    0.4010 H   0  0  0  0  0  0  0  0  0  0  0  0
    4.2540    8.2250    0.9420 C   0  0  0  0  0  0  0  0  0  0  0  0
    5.4840    7.4310    1.1560 C   0  0  0  0  0  0  0  0  0  0  0  0
    5.4170    6.1510    1.7150 C   0  0  0  0  0  0  0  0  0  0  0  0
    4.4610    5.7160    1.9940 H   0  0  0  0  0  0  0  0  0  0  0  0
    6.5940    5.4330    1.9300 C   0  0  0  0  0  0  0  0  0  0  0  0
    6.5540    4.4360    2.3620 H   0  0  0  0  0  0  0  0  0  0  0  0
    7.8280    5.9990    1.6030 C   0  0  0  0  0  0  0  0  0  0  0  0
    8.7440    5.4390    1.7760 H   0  0  0  0  0  0  0  0  0  0  0  0
    7.8910    7.2870    1.0660 C   0  0  0  0  0  0  0  0  0  0  0  0
    8.8550    7.7280    0.8260 H   0  0  0  0  0  0  0  0  0  0  0  0
    6.7190    8.0100    0.8480 C   0  0  0  0  0  0  0  0  0  0  0  0
    6.7690    9.0170    0.4420 H   0  0  0  0  0  0  0  0  0  0  0  0
   -1.9660    7.2120   -2.2590 O   0  0  0  0  0  0  0  0  0  0  0  0
    0.2920    5.4720   -3.3850 O   0  0  0  0  0  0  0  0  0  0  0  0
    4.1590    9.2880    1.5490 O   0  0  0  0  0  0  0  0  0  0  0  0
   -4.2540    2.6870    2.1370 O   0  0  0  0  0  0  0  0  0  0  0  0
   -4.9640    1.5870    1.5550 C   0  0  0  0  0  0  0  0  0  0  0  0
   -6.0360    1.8120    1.5020 H   0  0  0  0  0  0  0  0  0  0  0  0
   -4.5870    1.3730    0.5470 H   0  0  0  0  0  0  0  0  0  0  0  0
   -4.7510    0.3720    2.4390 C   0  0  0  0  0  0  0  0  0  0  0  0
   -5.1100    0.5660    3.4550 H   0  0  0  0  0  0  0  0  0  0  0  0
   -3.6840    0.1360    2.5180 H   0  0  0  0  0  0  0  0  0  0  0  0
   -5.2770   -0.4990    2.0390 H   0  0  0  0  0  0  0  0  0  0  0  0
  1  2  1  0  0  0  0
  1  3  1  0  0  0  0
  1  8  2  0  0  0  0
  3  4  1  0  0  0  0
  3  5  2  0  0  0  0
  5  6  1  0  0  0  0
  5 46  1  0  0  0  0
  6  7  2  0  0  0  0
  6 10  1  0  0  0  0
  7  8  1  0  0  0  0
  7 14  1  0  0  0  0
  8  9  1  0  0  0  0
 10 11  1  0  0  0  0
 10 12  1  0  0  0  0
 12 13  1  0  0  0  0
 12 14  2  0  0  0  0
 14 15  1  0  0  0  0
 15 16  1  0  0  0  0
 15 43  2  0  0  0  0
 16 17  1  0  0  0  0
 16 44  2  0  0  0  0
 17 18  1  0  0  0  0
 17 28  1  0  0  0  0
 18 19  1  0  0  0  0
 18 20  1  0  0  0  0
 18 21  1  0  0  0  0
 21 22  1  0  0  0  0
 21 23  1  0  0  0  0
 21 24  1  0  0  0  0
 24 25  1  0  0  0  0
 24 31  1  0  0  0  0
 25 26  1  0  0  0  0
 25 27  1  0  0  0  0
 25 28  1  0  0  0  0
 28 29  1  0  0  0  0
 28 30  1  0  0  0  0
 31 32  1  0  0  0  0
 31 45  2  0  0  0  0
 32 33  1  0  0  0  0
 32 41  2  0  0  0  0
 33 34  1  0  0  0  0
 33 35  2  0  0  0  0
 35 36  1  0  0  0  0
 35 37  1  0  0  0  0
 37 38  1  0  0  0  0
 37 39  2  0  0  0  0
 39 40  1  0  0  0  0
 39 41  1  0  0  0  0
 41 42  1  0  0  0  0
 46 47  1  0  0  0  0
 47 48  1  0  0  0  0
 47 49  1  0  0  0  0
 47 50  1  0  0  0  0
 50 51  1  0  0  0  0
 50 52  1  0  0  0  0
 50 53  1  0  0  0  0
M  END
>  <Activity>
9.301

>  <AM1_dipole>
5.14663

>  <AM1_E>
-119030

>  <AM1_Eele>
-926711

>  <AM1_HF>
-39.1522

>  <AM1_HOMO>
-8.7501

>  <AM1_IP>
8.7501

>  <AM1_LUMO>
-0.51691

>  <diameter>
17

>  <petitjean>
0.470588

>  <petitjeanSC>
0.888889

>  <radius>
9

>  <VDistEq>
3.78992

>  <VDistMa>
9.49016

>  <weinerPath>
2723

>  <weinerPol>
50

>  <BCUT_PEOE_0>
-2.71189

>  <BCUT_PEOE_1>
-0.601701

>  <BCUT_PEOE_2>
0.608027

>  <BCUT_PEOE_3>
2.65024

>  <BCUT_SLOGP_0>
-2.86001

>  <BCUT_SLOGP_1>
-0.507922

>  <BCUT_SLOGP_2>
0.672971

>  <BCUT_SLOGP_3>
2.504

>  <BCUT_SMR_0>
-2.43203

>  <BCUT_SMR_1>
-0.412318

>  <BCUT_SMR_2>
0.769536

>  <BCUT_SMR_3>
2.92026

>  <GCUT_PEOE_0>
-0.854936

>  <GCUT_PEOE_1>
-0.398389

>  <GCUT_PEOE_2>
0.0729125

>  <GCUT_PEOE_3>
2.68978

>  <GCUT_SLOGP_0>
-0.976492

>  <GCUT_SLOGP_1>
-0.327441

>  <GCUT_SLOGP_2>
0.137447

>  <GCUT_SLOGP_3>
2.69423

>  <GCUT_SMR_0>
-0.513669

>  <GCUT_SMR_1>
-0.206124

>  <GCUT_SMR_2>
0.181013

>  <GCUT_SMR_3>
2.9627

>  <a_aro>
15

>  <a_count>
53

>  <a_IC>
82.741

>  <a_ICM>
1.56115

>  <a_nH>
23

>  <b_1rotN>
7

>  <b_1rotR>
0.212121

>  <b_ar>
16

>  <b_count>
56

>  <b_double>
3

>  <b_rotN>
7

>  <b_rotR>
0.212121

>  <b_single>
37

>  <b_triple>
0

>  <chi0v>
16.7591

>  <chi0v_C>
13.7317

>  <chi1v>
10.0065

>  <chi1v_C>
6.65048

>  <chiral>
0

>  <chiral_u>
0

>  <nmol>
1

>  <reactive>
0

>  <rings>
4

>  <Weight>
405.454

>  <a_heavy>
30

>  <a_nB>
0

>  <a_nBr>
0

>  <a_nC>
23

>  <a_nCl>
0

>  <a_nF>
0

>  <a_nI>
0

>  <a_nN>
3

>  <a_nO>
4

>  <a_nP>
0

>  <a_nS>
0

>  <b_heavy>
33

>  <chi0>
21.0872

>  <chi0_C>
15.5183

>  <chi1>
14.5966

>  <chi1_C>
8.74835

>  <FCharge>
0

>  <VAdjEq>
0.378242

>  <VAdjMa>
6.04439

>  <zagreb>
158

>  <balabanJ>
1.28206

>  <PEOE_PC+>
2.6444

>  <PEOE_PC->
-2.6444

>  <PEOE_RPC+>
0.111594

>  <PEOE_RPC->
0.135364

>  <PEOE_VSA+0>
86.7285

>  <PEOE_VSA+1>
113.36

>  <PEOE_VSA+2>
0

>  <PEOE_VSA+3>
8.61901

>  <PEOE_VSA+4>
0

>  <PEOE_VSA+5>
34.3576

>  <PEOE_VSA+6>
0

>  <PEOE_VSA-0>
55.5124

>  <PEOE_VSA-1>
61.2745

>  <PEOE_VSA-2>
0

>  <PEOE_VSA-3>
0

>  <PEOE_VSA-4>
0

>  <PEOE_VSA-5>
40.7008

>  <PEOE_VSA-6>
2.64065

>  <PEOE_VSA_FHYD>
0.807291

>  <PEOE_VSA_FNEG>
0.39715

>  <PEOE_VSA_FPNEG>
0.107495

>  <PEOE_VSA_FPOL>
0.192709

>  <PEOE_VSA_FPOS>
0.60285

>  <PEOE_VSA_FPPOS>
0.0852136

>  <PEOE_VSA_HYD>
325.495

>  <PEOE_VSA_NEG>
160.128

>  <PEOE_VSA_PNEG>
43.3414

>  <PEOE_VSA_POL>
77.699

>  <PEOE_VSA_POS>
243.065

>  <PEOE_VSA_PPOS>
34.3576

>  <PC+>
5.131

>  <PC->
-5.133

>  <Q_PC+>
5.131

>  <Q_PC->
-5.133

>  <Q_RPC+>
0.12785

>  <Q_RPC->
0.12858

>  <Q_VSA_FHYD>
0.57676

>  <Q_VSA_FNEG>
0.41394

>  <Q_VSA_FPNEG>
0.148689

>  <Q_VSA_FPOL>
0.42324

>  <Q_VSA_FPOS>
0.586061

>  <Q_VSA_FPPOS>
0.274551

>  <Q_VSA_HYD>
232.546

>  <Q_VSA_NEG>
166.898

>  <Q_VSA_PNEG>
59.9504

>  <Q_VSA_POL>
170.648

>  <Q_VSA_POS>
236.296

>  <Q_VSA_PPOS>
110.697

>  <RPC+>
0.12785

>  <RPC->
0.12858

>  <lip_acc>
7

>  <lip_don>
1

>  <lip_druglike>
1

>  <lip_violation>
0

>  <opr_brigid>
22

>  <opr_leadlike>
1

>  <opr_nring>
4

>  <opr_nrot>
7

>  <opr_violation>
0

>  <E>
99.8945

>  <E_ang>
8.50275

>  <E_ele>
27.2283

>  <E_nb>
76.5182

>  <E_oop>
0.0781229

>  <E_sol>
-15.8331

>  <E_stb>
0.368847

>  <E_str>
5.79819

>  <E_strain>
0.00381507

>  <E_tor>
8.62834

>  <E_vdw>
49.29

>  <E_rele>
0

>  <E_rnb>
0

>  <E_rsol>
0

>  <E_rvdw>
0

>  <Kier1>
23.168

>  <Kier2>
10.7448

>  <Kier3>
5.16797

>  <KierA1>
16.3249

>  <KierA2>
7.47224

>  <KierA3>
3.56058

>  <KierFlex>
4.06611

>  <logS>
-4.40718

>  <MNDO_dipole>
5.76164

>  <MNDO_E>
-119329

>  <MNDO_Eele>
-917854

>  <MNDO_HF>
-60.7053

>  <MNDO_HOMO>
-8.73784

>  <MNDO_IP>
8.73784

>  <MNDO_LUMO>
-0.54596

>  <apol>
62.3242

>  <bpol>
34.5538

>  <mr>
11.3919

>  <dipole>
1.41034

>  <dipoleX>
0.448719

>  <dipoleY>
-1.28174

>  <dipoleZ>
0.380598

>  <pmi>
9810.24

>  <pmiX>
7094.38

>  <pmiY>
1761.17

>  <pmiZ>
954.695

>  <rgyr>
4.91891

>  <a_acc>
4

>  <a_acid>
0

>  <a_base>
0

>  <a_don>
1

>  <a_hyd>
20

>  <vsa_acc>
43.2045

>  <vsa_acid>
0

>  <vsa_base>
0

>  <vsa_don>
5.68258

>  <vsa_hyd>
301.216

>  <vsa_other>
34.3576

>  <vsa_pol>
48.8871

>  <PM3_dipole>
5.93798

>  <PM3_E>
-109302

>  <PM3_Eele>
-911332

>  <PM3_HF>
-73.0007

>  <PM3_HOMO>
-8.71849

>  <PM3_IP>
8.71849

>  <PM3_LUMO>
-0.59153

>  <SlogP>
2.7339

>  <SlogP_VSA0>
10.9999

>  <SlogP_VSA1>
22.4538

>  <SlogP_VSA2>
40.6477

>  <SlogP_VSA3>
94.6846

>  <SlogP_VSA4>
54.0956

>  <SlogP_VSA5>
0

>  <SlogP_VSA6>
0

>  <SlogP_VSA7>
163.077

>  <SlogP_VSA8>
0

>  <SlogP_VSA9>
38.5694

>  <SMR>
11.2724

>  <SMR_VSA0>
71.5866

>  <SMR_VSA1>
17.2485

>  <SMR_VSA2>
16.7855

>  <SMR_VSA3>
11.6146

>  <SMR_VSA4>
4.7171

>  <SMR_VSA5>
158.36

>  <SMR_VSA6>
110.89

>  <SMR_VSA7>
33.326

>  <ASA>
692.521

>  <ASA+>
236.815

>  <ASA->
237.232

>  <ASA_H>
527.681

>  <ASA_P>
164.84

>  <CASA+>
1215.1

>  <CASA->
1217.71

>  <DASA>
0.417624

>  <DCASA>
2.61729

>  <FASA+>
0.34196

>  <FASA->
0.342563

>  <FASA_H>
0.761971

>  <FASA_P>
0.238029

>  <FCASA+>
1.7546

>  <FCASA->
1.75838

>  <VSA>
428.744

>  <TPSA>
82.71

>  <density>
0.743732

>  <vdw_area>
403.194

>  <vdw_vol>
545.162

>  <vsurf_A>
2.63666

>  <vsurf_CP>
0.13645

>  <vsurf_CW1>
2.60415

>  <vsurf_CW2>
1.98974

>  <vsurf_CW3>
1.24378

>  <vsurf_CW4>
0.545748

>  <vsurf_CW5>
0.228828

>  <vsurf_CW6>
0.0661292

>  <vsurf_CW7>
0.00114054

>  <vsurf_CW8>
0

>  <vsurf_D1>
941.125

>  <vsurf_D2>
567.5

>  <vsurf_D3>
436.5

>  <vsurf_D4>
378

>  <vsurf_D5>
327.75

>  <vsurf_D6>
247

>  <vsurf_D7>
137.625

>  <vsurf_D8>
75.375

>  <vsurf_DD12>
4.38748

>  <vsurf_DD13>
4.06202

>  <vsurf_DD23>
0.5

>  <vsurf_DW12>
4.63681

>  <vsurf_DW13>
4.63681

>  <vsurf_DW23>
0.707107

>  <vsurf_EDmin1>
-2.71478

>  <vsurf_EDmin2>
-2.69828

>  <vsurf_EDmin3>
-2.69104

>  <vsurf_EWmin1>
-5.20933

>  <vsurf_EWmin2>
-5.04324

>  <vsurf_EWmin3>
-5.0034

>  <vsurf_G>
1.38481

>  <vsurf_HB1>
342.5

>  <vsurf_HB2>
378.875

>  <vsurf_HB3>
327.875

>  <vsurf_HB4>
121

>  <vsurf_HB5>
39.25

>  <vsurf_HB6>
8.75

>  <vsurf_HB7>
0.5

>  <vsurf_HB8>
0

>  <vsurf_HL1>
0.10252

>  <vsurf_HL2>
0.0267857

>  <vsurf_ID1>
0.869619

>  <vsurf_ID2>
0.967276

>  <vsurf_ID3>
1.13429

>  <vsurf_ID4>
1.26782

>  <vsurf_ID5>
1.37337

>  <vsurf_ID6>
1.06974

>  <vsurf_ID7>
0.651355

>  <vsurf_ID8>
0.580375

>  <vsurf_IW1>
0.160151

>  <vsurf_IW2>
0.7067

>  <vsurf_IW3>
1.10977

>  <vsurf_IW4>
1.52084

>  <vsurf_IW5>
1.52055

>  <vsurf_IW6>
2.45193

>  <vsurf_IW7>
5.10332

>  <vsurf_IW8>
0

>  <vsurf_R>
1.44695

>  <vsurf_S>
628.824

>  <vsurf_V>
909.875

>  <vsurf_W1>
1440.13

>  <vsurf_W2>
832.875

>  <vsurf_W3>
412.5

>  <vsurf_W4>
134.75

>  <vsurf_W5>
44.75

>  <vsurf_W6>
10.125

>  <vsurf_W7>
0.5

>  <vsurf_W8>
0

>  <vsurf_Wp1>
1097.63

>  <vsurf_Wp2>
454

>  <vsurf_Wp3>
84.625

>  <vsurf_Wp4>
13.75

>  <vsurf_Wp5>
5.5

>  <vsurf_Wp6>
1.375

>  <vsurf_Wp7>
0

>  <vsurf_Wp8>
0

>  <dens>
1.04063

>  <glob>
0.0564315

>  <std_dim1>
4.77469

>  <std_dim2>
2.08056

>  <std_dim3>
1.13424

>  <vol>
389.625

>  <logP(o/w)>
2.378

$$$$
D3.cdx
  MOE2008           3D

 59 62  0  0  0  0  0  0  0  0999 V2000
   -5.1260    1.8530    0.3160 C   0  0  0  0  0  0  0  0  0  0  0  0
   -5.9760    2.5290    0.3750 H   0  0  0  0  0  0  0  0  0  0  0  0
   -5.2890    0.5840   -0.2420 C   0  0  0  0  0  0  0  0  0  0  0  0
   -6.2830    0.3200   -0.5910 H   0  0  0  0  0  0  0  0  0  0  0  0
   -4.2210   -0.3190   -0.3360 C   0  0  0  0  0  0  0  0  0  0  0  0
   -2.9900    0.1230    0.1750 C   0  0  0  0  0  0  0  0  0  0  0  0
   -2.7900    1.3800    0.7450 C   0  0  0  0  0  0  0  0  0  0  0  0
   -3.8850    2.2640    0.8100 C   0  0  0  0  0  0  0  0  0  0  0  0
   -3.7740    3.2530    1.2480 H   0  0  0  0  0  0  0  0  0  0  0  0
   -1.7850   -0.5400    0.2290 N   0  0  0  0  0  0  0  0  0  0  0  0
   -1.6440   -1.4770   -0.1230 H   0  0  0  0  0  0  0  0  0  0  0  0
   -0.8350    0.2460    0.8200 C   0  0  0  0  0  0  0  0  0  0  0  0
    0.1730   -0.1290    0.9510 H   0  0  0  0  0  0  0  0  0  0  0  0
   -1.4190    1.4530    1.1600 C   0  0  0  0  0  0  0  0  0  0  0  0
   -0.7440    2.5630    1.8200 C   0  0  0  0  0  0  0  0  0  0  0  0
    0.6780    2.3840    2.3130 C   0  0  0  0  0  0  0  0  0  0  0  0
    1.6990    2.9030    1.5240 N   0  0  0  0  0  0  0  0  0  0  0  0
    3.0900    2.7460    1.9470 C   0  0  0  0  0  0  0  0  0  0  0  0
    3.4590    3.7490    2.1960 H   0  0  0  0  0  0  0  0  0  0  0  0
    3.1620    2.1340    2.8520 H   0  0  0  0  0  0  0  0  0  0  0  0
    3.9500    2.1340    0.8340 C   0  0  0  0  0  0  0  0  0  0  0  0
    3.6560    1.0920    0.6600 H   0  0  0  0  0  0  0  0  0  0  0  0
    4.9950    2.1460    1.1530 H   0  0  0  0  0  0  0  0  0  0  0  0
    3.7650    2.8460   -0.4420 N   0  0  0  0  0  0  0  0  0  0  0  0
    2.3690    3.0280   -0.8540 C   0  0  0  0  0  0  0  0  0  0  0  0
    2.2970    3.6450   -1.7550 H   0  0  0  0  0  0  0  0  0  0  0  0
    1.9880    2.0310   -1.1070 H   0  0  0  0  0  0  0  0  0  0  0  0
    1.5150    3.6370    0.2650 C   0  0  0  0  0  0  0  0  0  0  0  0
    0.4670    3.6580   -0.0410 H   0  0  0  0  0  0  0  0  0  0  0  0
    1.8280    4.6710    0.4550 H   0  0  0  0  0  0  0  0  0  0  0  0
    4.7800    3.3360   -1.2590 C   0  0  0  0  0  0  0  0  0  0  0  0
    6.1800    2.9630   -0.9620 C   0  0  0  0  0  0  0  0  0  0  0  0
    6.5730    1.6190   -0.9860 C   0  0  0  0  0  0  0  0  0  0  0  0
    5.8530    0.8360   -1.2060 H   0  0  0  0  0  0  0  0  0  0  0  0
    7.9030    1.2890   -0.7320 C   0  0  0  0  0  0  0  0  0  0  0  0
    8.2170    0.2480   -0.7430 H   0  0  0  0  0  0  0  0  0  0  0  0
    8.8360    2.2950   -0.4740 C   0  0  0  0  0  0  0  0  0  0  0  0
    9.8740    2.0350   -0.2800 H   0  0  0  0  0  0  0  0  0  0  0  0
    8.4450    3.6360   -0.4760 C   0  0  0  0  0  0  0  0  0  0  0  0
    9.1790    4.4160   -0.2870 H   0  0  0  0  0  0  0  0  0  0  0  0
    7.1160    3.9750   -0.7270 C   0  0  0  0  0  0  0  0  0  0  0  0
    6.8120    5.0180   -0.7400 H   0  0  0  0  0  0  0  0  0  0  0  0
   -1.2660    3.6580    2.0070 O   0  0  0  0  0  0  0  0  0  0  0  0
    0.8320    1.7720    3.3650 O   0  0  0  0  0  0  0  0  0  0  0  0
    4.5920    4.0620   -2.2310 O   0  0  0  0  0  0  0  0  0  0  0  0
   -4.2760   -1.5830   -0.8520 O   0  0  0  0  0  0  0  0  0  0  0  0
   -5.4510   -1.9920   -1.5510 C   0  0  0  0  0  0  0  0  0  0  0  0
   -5.9020   -1.1750   -2.1270 H   0  0  0  0  0  0  0  0  0  0  0  0
   -5.1240   -2.7310   -2.2920 H   0  0  0  0  0  0  0  0  0  0  0  0
   -6.4380   -2.6590   -0.5950 C   0  0  0  0  0  0  0  0  0  0  0  0
   -5.9410   -3.5010   -0.0960 H   0  0  0  0  0  0  0  0  0  0  0  0
   -6.7180   -1.9650    0.2060 H   0  0  0  0  0  0  0  0  0  0  0  0
   -7.6880   -3.1430   -1.3260 C   0  0  0  0  0  0  0  0  0  0  0  0
   -8.1840   -2.2960   -1.8140 H   0  0  0  0  0  0  0  0  0  0  0  0
   -7.4080   -3.8530   -2.1130 H   0  0  0  0  0  0  0  0  0  0  0  0
   -8.6660   -3.8140   -0.3750 C   0  0  0  0  0  0  0  0  0  0  0  0
   -8.9920   -3.1200    0.4070 H   0  0  0  0  0  0  0  0  0  0  0  0
   -8.2100   -4.6850    0.1070 H   0  0  0  0  0  0  0  0  0  0  0  0
   -9.5530   -4.1520   -0.9200 H   0  0  0  0  0  0  0  0  0  0  0  0
  1  2  1  0  0  0  0
  1  3  1  0  0  0  0
  1  8  2  0  0  0  0
  3  4  1  0  0  0  0
  3  5  2  0  0  0  0
  5  6  1  0  0  0  0
  5 46  1  0  0  0  0
  6  7  2  0  0  0  0
  6 10  1  0  0  0  0
  7  8  1  0  0  0  0
  7 14  1  0  0  0  0
  8  9  1  0  0  0  0
 10 11  1  0  0  0  0
 10 12  1  0  0  0  0
 12 13  1  0  0  0  0
 12 14  2  0  0  0  0
 14 15  1  0  0  0  0
 15 16  1  0  0  0  0
 15 43  2  0  0  0  0
 16 17  1  0  0  0  0
 16 44  2  0  0  0  0
 17 18  1  0  0  0  0
 17 28  1  0  0  0  0
 18 19  1  0  0  0  0
 18 20  1  0  0  0  0
 18 21  1  0  0  0  0
 21 22  1  0  0  0  0
 21 23  1  0  0  0  0
 21 24  1  0  0  0  0
 24 25  1  0  0  0  0
 24 31  1  0  0  0  0
 25 26  1  0  0  0  0
 25 27  1  0  0  0  0
 25 28  1  0  0  0  0
 28 29  1  0  0  0  0
 28 30  1  0  0  0  0
 31 32  1  0  0  0  0
 31 45  2  0  0  0  0
 32 33  1  0  0  0  0
 32 41  2  0  0  0  0
 33 34  1  0  0  0  0
 33 35  2  0  0  0  0
 35 36  1  0  0  0  0
 35 37  1  0  0  0  0
 37 38  1  0  0  0  0
 37 39  2  0  0  0  0
 39 40  1  0  0  0  0
 39 41  1  0  0  0  0
 41 42  1  0  0  0  0
 46 47  1  0  0  0  0
 47 48  1  0  0  0  0
 47 49  1  0  0  0  0
 47 50  1  0  0  0  0
 50 51  1  0  0  0  0
 50 52  1  0  0  0  0
 50 53  1  0  0  0  0
 53 54  1  0  0  0  0
 53 55  1  0  0  0  0
 53 56  1  0  0  0  0
 56 57  1  0  0  0  0
 56 58  1  0  0  0  0
 56 59  1  0  0  0  0
M  END
>  <Activity>
9.8538

>  <AM1_dipole>
5.34984

>  <AM1_E>
-126220

>  <AM1_Eele>
-1.01772e+006

>  <AM1_HF>
-55.1306

>  <AM1_HOMO>
-8.56832

>  <AM1_IP>
8.56832

>  <AM1_LUMO>
-0.40066

>  <diameter>
19

>  <petitjean>
0.473684

>  <petitjeanSC>
0.9

>  <radius>
10

>  <VDistEq>
3.91687

>  <VDistMa>
9.67345

>  <weinerPath>
3338

>  <weinerPol>
52

>  <BCUT_PEOE_0>
-2.71189

>  <BCUT_PEOE_1>
-0.600688

>  <BCUT_PEOE_2>
0.607809

>  <BCUT_PEOE_3>
2.65025

>  <BCUT_SLOGP_0>
-2.86001

>  <BCUT_SLOGP_1>
-0.507061

>  <BCUT_SLOGP_2>
0.672935

>  <BCUT_SLOGP_3>
2.63833

>  <BCUT_SMR_0>
-2.43203

>  <BCUT_SMR_1>
-0.412178

>  <BCUT_SMR_2>
0.768312

>  <BCUT_SMR_3>
2.92026

>  <GCUT_PEOE_0>
-0.854958

>  <GCUT_PEOE_1>
-0.398389

>  <GCUT_PEOE_2>
0.0729125

>  <GCUT_PEOE_3>
2.71886

>  <GCUT_SLOGP_0>
-0.976492

>  <GCUT_SLOGP_1>
-0.314322

>  <GCUT_SLOGP_2>
0.137444

>  <GCUT_SLOGP_3>
2.73799

>  <GCUT_SMR_0>
-0.528336

>  <GCUT_SMR_1>
-0.206099

>  <GCUT_SMR_2>
0.181013

>  <GCUT_SMR_3>
2.9904

>  <a_aro>
15

>  <a_count>
59

>  <a_IC>
89.8427

>  <a_ICM>
1.52276

>  <a_nH>
27

>  <b_1rotN>
9

>  <b_1rotR>
0.257143

>  <b_ar>
16

>  <b_count>
62

>  <b_double>
3

>  <b_rotN>
9

>  <b_rotR>
0.257143

>  <b_single>
43

>  <b_triple>
0

>  <chi0v>
18.1733

>  <chi0v_C>
15.1459

>  <chi1v>
11.0065

>  <chi1v_C>
7.65048

>  <chiral>
0

>  <chiral_u>
0

>  <nmol>
1

>  <reactive>
0

>  <rings>
4

>  <Weight>
433.508

>  <a_heavy>
32

>  <a_nB>
0

>  <a_nBr>
0

>  <a_nC>
25

>  <a_nCl>
0

>  <a_nF>
0

>  <a_nI>
0

>  <a_nN>
3

>  <a_nO>
4

>  <a_nP>
0

>  <a_nS>
0

>  <b_heavy>
35

>  <chi0>
22.5014

>  <chi0_C>
16.9325

>  <chi1>
15.5966

>  <chi1_C>
9.74835

>  <FCharge>
0

>  <VAdjEq>
0.359771

>  <VAdjMa>
6.12928

>  <zagreb>
166

>  <balabanJ>
1.26302

>  <PEOE_PC+>
2.75129

>  <PEOE_PC->
-2.75129

>  <PEOE_RPC+>
0.107259

>  <PEOE_RPC->
0.130105

>  <PEOE_VSA+0>
103.79

>  <PEOE_VSA+1>
113.36

>  <PEOE_VSA+2>
0

>  <PEOE_VSA+3>
8.61901

>  <PEOE_VSA+4>
0

>  <PEOE_VSA+5>
34.3576

>  <PEOE_VSA+6>
0

>  <PEOE_VSA-0>
45.466

>  <PEOE_VSA-1>
88.7235

>  <PEOE_VSA-2>
0

>  <PEOE_VSA-3>
0

>  <PEOE_VSA-4>
0

>  <PEOE_VSA-5>
40.7008

>  <PEOE_VSA-6>
2.64065

>  <PEOE_VSA_FHYD>
0.822466

>  <PEOE_VSA_FNEG>
0.405639

>  <PEOE_VSA_FPNEG>
0.0990304

>  <PEOE_VSA_FPOL>
0.177534

>  <PEOE_VSA_FPOS>
0.594361

>  <PEOE_VSA_FPPOS>
0.0785033

>  <PEOE_VSA_HYD>
359.959

>  <PEOE_VSA_NEG>
177.531

>  <PEOE_VSA_PNEG>
43.3414

>  <PEOE_VSA_POL>
77.699

>  <PEOE_VSA_POS>
260.127

>  <PEOE_VSA_PPOS>
34.3576

>  <PC+>
5.131

>  <PC->
-5.133

>  <Q_PC+>
5.131

>  <Q_PC->
-5.133

>  <Q_RPC+>
0.12785

>  <Q_RPC->
0.12858

>  <Q_VSA_FHYD>
0.610089

>  <Q_VSA_FNEG>
0.381343

>  <Q_VSA_FPNEG>
0.13698

>  <Q_VSA_FPOL>
0.389911

>  <Q_VSA_FPOS>
0.618657

>  <Q_VSA_FPPOS>
0.252931

>  <Q_VSA_HYD>
267.01

>  <Q_VSA_NEG>
166.898

>  <Q_VSA_PNEG>
59.9504

>  <Q_VSA_POL>
170.648

>  <Q_VSA_POS>
270.76

>  <Q_VSA_PPOS>
110.697

>  <RPC+>
0.12785

>  <RPC->
0.12858

>  <lip_acc>
7

>  <lip_don>
1

>  <lip_druglike>
1

>  <lip_violation>
0

>  <opr_brigid>
22

>  <opr_leadlike>
1

>  <opr_nring>
4

>  <opr_nrot>
9

>  <opr_violation>
0

>  <E>
100.219

>  <E_ang>
16.6264

>  <E_ele>
27.6559

>  <E_nb>
81.0868

>  <E_oop>
0.0386199

>  <E_sol>
-19.9441

>  <E_stb>
0.121385

>  <E_str>
6.1832

>  <E_strain>
0.00533075

>  <E_tor>
-3.8374

>  <E_vdw>
53.4308

>  <E_rele>
0

>  <E_rnb>
-4.26326e-014

>  <E_rsol>
-4.26326e-014

>  <E_rvdw>
0

>  <Kier1>
25.1037

>  <Kier2>
12.1094

>  <Kier3>
5.99174

>  <KierA1>
18.1115

>  <KierA2>
8.63754

>  <KierA3>
4.23958

>  <KierFlex>
4.88873

>  <logS>
-5.12417

>  <MNDO_dipole>
4.77944

>  <MNDO_E>
-126544

>  <MNDO_Eele>
-1.00335e+006

>  <MNDO_HF>
-69.425

>  <MNDO_HOMO>
-8.50317

>  <MNDO_IP>
8.50317

>  <MNDO_LUMO>
-0.4041

>  <apol>
68.5114

>  <bpol>
38.9266

>  <mr>
12.3352

>  <dipole>
1.07559

>  <dipoleX>
0.303215

>  <dipoleY>
-0.977896

>  <dipoleZ>
-0.329672

>  <pmi>
13316.5

>  <pmiX>
10494.9

>  <pmiY>
2085.42

>  <pmiZ>
736.172

>  <rgyr>
5.54238

>  <a_acc>
4

>  <a_acid>
0

>  <a_base>
0

>  <a_don>
1

>  <a_hyd>
22

>  <vsa_acc>
43.2045

>  <vsa_acid>
0

>  <vsa_base>
0

>  <vsa_don>
5.68258

>  <vsa_hyd>
332.833

>  <vsa_other>
34.3576

>  <vsa_pol>
48.8871

>  <PM3_dipole>
4.98888

>  <PM3_E>
-116204

>  <PM3_Eele>
-1.01222e+006

>  <PM3_HF>
-86.8404

>  <PM3_HOMO>
-8.54237

>  <PM3_IP>
8.54237

>  <PM3_LUMO>
-0.50705

>  <SlogP>
3.5141

>  <SlogP_VSA0>
10.9999

>  <SlogP_VSA1>
22.4538

>  <SlogP_VSA2>
40.6477

>  <SlogP_VSA3>
94.6846

>  <SlogP_VSA4>
54.0956

>  <SlogP_VSA5>
0

>  <SlogP_VSA6>
0

>  <SlogP_VSA7>
163.077

>  <SlogP_VSA8>
37.7368

>  <SlogP_VSA9>
38.5694

>  <SMR>
12.1958

>  <SMR_VSA0>
71.5866

>  <SMR_VSA1>
17.2485

>  <SMR_VSA2>
16.7855

>  <SMR_VSA3>
11.6146

>  <SMR_VSA4>
4.7171

>  <SMR_VSA5>
196.097

>  <SMR_VSA6>
110.89

>  <SMR_VSA7>
33.326

>  <ASA>
749.542

>  <ASA+>
239.432

>  <ASA->
230.682

>  <ASA_H>
582.31

>  <ASA_P>
167.232

>  <CASA+>
1228.53

>  <CASA->
1184.09

>  <DASA>
8.74953

>  <DCASA>
44.4325

>  <FASA+>
0.319438

>  <FASA->
0.307765

>  <FASA_H>
0.776888

>  <FASA_P>
0.223112

>  <FCASA+>
1.63904

>  <FCASA->
1.57976

>  <VSA>
469.883

>  <TPSA>
82.71

>  <density>
0.729787

>  <vdw_area>
437.658

>  <vdw_vol>
594.02

>  <vsurf_A>
1.92741

>  <vsurf_CP>
0.125022

>  <vsurf_CW1>
2.57762

>  <vsurf_CW2>
1.87967

>  <vsurf_CW3>
1.1151

>  <vsurf_CW4>
0.493468

>  <vsurf_CW5>
0.214578

>  <vsurf_CW6>
0.0792389

>  <vsurf_CW7>
0.0160637

>  <vsurf_CW8>
0.00182732

>  <vsurf_D1>
1056.5

>  <vsurf_D2>
630.75

>  <vsurf_D3>
487

>  <vsurf_D4>
424.25

>  <vsurf_D5>
376.125

>  <vsurf_D6>
280.375

>  <vsurf_D7>
162.875

>  <vsurf_D8>
89.375

>  <vsurf_DD12>
0.5

>  <vsurf_DD13>
0.5

>  <vsurf_DD23>
0.707107

>  <vsurf_DW12>
0.707107

>  <vsurf_DW13>
0.5

>  <vsurf_DW23>
0.5

>  <vsurf_EDmin1>
-2.75958

>  <vsurf_EDmin2>
-2.73166

>  <vsurf_EDmin3>
-2.70989

>  <vsurf_EWmin1>
-6.49277

>  <vsurf_EWmin2>
-6.14277

>  <vsurf_EWmin3>
-6.13606

>  <vsurf_G>
1.41352

>  <vsurf_HB1>
336.125

>  <vsurf_HB2>
354.75

>  <vsurf_HB3>
314.375

>  <vsurf_HB4>
118.5

>  <vsurf_HB5>
40

>  <vsurf_HB6>
13.625

>  <vsurf_HB7>
3

>  <vsurf_HB8>
0.375

>  <vsurf_HL1>
0.0949692

>  <vsurf_HL2>
0.0353565

>  <vsurf_ID1>
0.743953

>  <vsurf_ID2>
0.828559

>  <vsurf_ID3>
1.08435

>  <vsurf_ID4>
1.28527

>  <vsurf_ID5>
1.35017

>  <vsurf_ID6>
0.983897

>  <vsurf_ID7>
0.634871

>  <vsurf_ID8>
0.50294

>  <vsurf_IW1>
0.149944

>  <vsurf_IW2>
0.811602

>  <vsurf_IW3>
1.1506

>  <vsurf_IW4>
1.22945

>  <vsurf_IW5>
1.02664

>  <vsurf_IW6>
1.00527

>  <vsurf_IW7>
3.21217

>  <vsurf_IW8>
5.33105

>  <vsurf_R>
1.4607

>  <vsurf_S>
681.521

>  <vsurf_V>
995.5

>  <vsurf_W1>
1518.88

>  <vsurf_W2>
830.375

>  <vsurf_W3>
398.75

>  <vsurf_W4>
134

>  <vsurf_W5>
46.25

>  <vsurf_W6>
15

>  <vsurf_W7>
3

>  <vsurf_W8>
0.375

>  <vsurf_Wp1>
1182.75

>  <vsurf_Wp2>
475.625

>  <vsurf_Wp3>
84.375

>  <vsurf_Wp4>
15.5

>  <vsurf_Wp5>
6.25

>  <vsurf_Wp6>
1.375

>  <vsurf_Wp7>
0

>  <vsurf_Wp8>
0

>  <dens>
1.02333

>  <glob>
0.0357577

>  <std_dim1>
5.82932

>  <std_dim2>
1.73696

>  <std_dim3>
1.10231

>  <vol>
423.625

>  <logP(o/w)>
3.434

$$$$
D3.cdx
  MOE2008           3D

 47 50  0  0  0  0  0  0  0  0999 V2000
   -5.4730   -2.8950    0.7930 C   0  0  0  0  0  0  0  0  0  0  0  0
   -6.1480   -2.1230    1.1560 H   0  0  0  0  0  0  0  0  0  0  0  0
   -5.9690   -3.9460    0.0260 C   0  0  0  0  0  0  0  0  0  0  0  0
   -7.0340   -3.9740   -0.1980 H   0  0  0  0  0  0  0  0  0  0  0  0
   -5.1220   -4.9550   -0.4530 C   0  0  0  0  0  0  0  0  0  0  0  0
   -3.7540   -4.8670   -0.1320 C   0  0  0  0  0  0  0  0  0  0  0  0
   -3.2290   -3.8230    0.6370 C   0  0  0  0  0  0  0  0  0  0  0  0
   -4.1120   -2.8230    1.1030 C   0  0  0  0  0  0  0  0  0  0  0  0
   -3.7380   -1.9970    1.7040 H   0  0  0  0  0  0  0  0  0  0  0  0
   -2.6980   -5.6930   -0.4520 N   0  0  0  0  0  0  0  0  0  0  0  0
   -2.7720   -6.5390   -1.0030 H   0  0  0  0  0  0  0  0  0  0  0  0
   -1.5340   -5.2080    0.0820 C   0  0  0  0  0  0  0  0  0  0  0  0
   -0.6040   -5.7420   -0.0720 H   0  0  0  0  0  0  0  0  0  0  0  0
   -1.8180   -4.0450    0.7730 C   0  0  0  0  0  0  0  0  0  0  0  0
   -0.8530   -3.2180    1.4910 C   0  0  0  0  0  0  0  0  0  0  0  0
    0.6120   -3.6110    1.5340 C   0  0  0  0  0  0  0  0  0  0  0  0
    1.4780   -2.9300    0.6820 N   0  0  0  0  0  0  0  0  0  0  0  0
    2.9060   -3.2510    0.6870 C   0  0  0  0  0  0  0  0  0  0  0  0
    3.1430   -3.9830    1.4660 H   0  0  0  0  0  0  0  0  0  0  0  0
    3.1290   -3.7130   -0.2820 H   0  0  0  0  0  0  0  0  0  0  0  0
    3.7650   -1.9920    0.8750 C   0  0  0  0  0  0  0  0  0  0  0  0
    4.8150   -2.2620    0.7490 H   0  0  0  0  0  0  0  0  0  0  0  0
    3.6330   -1.5930    1.8870 H   0  0  0  0  0  0  0  0  0  0  0  0
    3.3610   -0.9260   -0.0580 N   0  0  0  0  0  0  0  0  0  0  0  0
    1.9270   -0.6160   -0.0570 C   0  0  0  0  0  0  0  0  0  0  0  0
    1.7010   -0.1730    0.9210 H   0  0  0  0  0  0  0  0  0  0  0  0
    1.6800    0.1280   -0.8210 H   0  0  0  0  0  0  0  0  0  0  0  0
    1.0830   -1.8780   -0.2660 C   0  0  0  0  0  0  0  0  0  0  0  0
    1.2540   -2.2820   -1.2720 H   0  0  0  0  0  0  0  0  0  0  0  0
    0.0220   -1.6350   -0.1860 H   0  0  0  0  0  0  0  0  0  0  0  0
    4.2050   -0.2220   -0.9130 C   0  0  0  0  0  0  0  0  0  0  0  0
    5.6670   -0.4010   -0.7800 C   0  0  0  0  0  0  0  0  0  0  0  0
    6.3190   -0.0360    0.4040 C   0  0  0  0  0  0  0  0  0  0  0  0
    5.7580    0.3640    1.2440 H   0  0  0  0  0  0  0  0  0  0  0  0
    7.7020   -0.1840    0.4980 C   0  0  0  0  0  0  0  0  0  0  0  0
    8.2180    0.0910    1.4150 H   0  0  0  0  0  0  0  0  0  0  0  0
    8.4280   -0.6760   -0.5890 C   0  0  0  0  0  0  0  0  0  0  0  0
    9.5070   -0.7860   -0.5140 H   0  0  0  0  0  0  0  0  0  0  0  0
    7.7760   -1.0170   -1.7760 C   0  0  0  0  0  0  0  0  0  0  0  0
    8.3480   -1.3870   -2.6230 H   0  0  0  0  0  0  0  0  0  0  0  0
    6.3920   -0.8730   -1.8770 C   0  0  0  0  0  0  0  0  0  0  0  0
    5.8840   -1.1260   -2.8040 H   0  0  0  0  0  0  0  0  0  0  0  0
   -1.1610   -2.1830    2.0760 O   0  0  0  0  0  0  0  0  0  0  0  0
    0.9370   -4.4970    2.3170 O   0  0  0  0  0  0  0  0  0  0  0  0
    3.8170    0.5500   -1.7850 O   0  0  0  0  0  0  0  0  0  0  0  0
   -5.6540   -6.0280   -1.2400 C   0  0  0  0  0  0  0  0  0  0  0  0
   -6.0790   -6.8990   -1.8790 N   0  0  0  0  0  0  0  0  0  0  0  0
  1  2  1  0  0  0  0
  1  3  1  0  0  0  0
  1  8  2  0  0  0  0
  3  4  1  0  0  0  0
  3  5  2  0  0  0  0
  5  6  1  0  0  0  0
  5 46  1  0  0  0  0
  6  7  2  0  0  0  0
  6 10  1  0  0  0  0
  7  8  1  0  0  0  0
  7 14  1  0  0  0  0
  8  9  1  0  0  0  0
 10 11  1  0  0  0  0
 10 12  1  0  0  0  0
 12 13  1  0  0  0  0
 12 14  2  0  0  0  0
 14 15  1  0  0  0  0
 15 16  1  0  0  0  0
 15 43  2  0  0  0  0
 16 17  1  0  0  0  0
 16 44  2  0  0  0  0
 17 18  1  0  0  0  0
 17 28  1  0  0  0  0
 18 19  1  0  0  0  0
 18 20  1  0  0  0  0
 18 21  1  0  0  0  0
 21 22  1  0  0  0  0
 21 23  1  0  0  0  0
 21 24  1  0  0  0  0
 24 25  1  0  0  0  0
 24 31  1  0  0  0  0
 25 26  1  0  0  0  0
 25 27  1  0  0  0  0
 25 28  1  0  0  0  0
 28 29  1  0  0  0  0
 28 30  1  0  0  0  0
 31 32  1  0  0  0  0
 31 45  2  0  0  0  0
 32 33  1  0  0  0  0
 32 41  2  0  0  0  0
 33 34  1  0  0  0  0
 33 35  2  0  0  0  0
 35 36  1  0  0  0  0
 35 37  1  0  0  0  0
 37 38  1  0  0  0  0
 37 39  2  0  0  0  0
 39 40  1  0  0  0  0
 39 41  1  0  0  0  0
 41 42  1  0  0  0  0
 46 47  3  0  0  0  0
M  END
>  <Activity>
8.3098

>  <AM1_dipole>
2.87277

>  <AM1_E>
-111858

>  <AM1_Eele>
-835814

>  <AM1_HF>
37.6476

>  <AM1_HOMO>
-9.24316

>  <AM1_IP>
9.24316

>  <AM1_LUMO>
-0.98018

>  <diameter>
16

>  <petitjean>
0.5

>  <petitjeanSC>
1

>  <radius>
8

>  <VDistEq>
3.73149

>  <VDistMa>
9.39237

>  <weinerPath>
2461

>  <weinerPol>
49

>  <BCUT_PEOE_0>
-2.71189

>  <BCUT_PEOE_1>
-0.631955

>  <BCUT_PEOE_2>
0.667983

>  <BCUT_PEOE_3>
2.65023

>  <BCUT_SLOGP_0>
-2.86001

>  <BCUT_SLOGP_1>
-0.527776

>  <BCUT_SLOGP_2>
0.752605

>  <BCUT_SLOGP_3>
2.5034

>  <BCUT_SMR_0>
-2.43203

>  <BCUT_SMR_1>
-0.431674

>  <BCUT_SMR_2>
0.825164

>  <BCUT_SMR_3>
2.92025

>  <GCUT_PEOE_0>
-0.857157

>  <GCUT_PEOE_1>
-0.417967

>  <GCUT_PEOE_2>
0.0796865

>  <GCUT_PEOE_3>
2.65798

>  <GCUT_SLOGP_0>
-0.976486

>  <GCUT_SLOGP_1>
-0.333265

>  <GCUT_SLOGP_2>
0.155533

>  <GCUT_SLOGP_3>
2.63882

>  <GCUT_SMR_0>
-0.508912

>  <GCUT_SMR_1>
-0.210435

>  <GCUT_SMR_2>
0.219355

>  <GCUT_SMR_3>
2.93072

>  <a_aro>
15

>  <a_count>
47

>  <a_IC>
75.1446

>  <a_ICM>
1.59882

>  <a_nH>
18

>  <b_1rotN>
5

>  <b_1rotR>
0.15625

>  <b_ar>
16

>  <b_count>
50

>  <b_double>
3

>  <b_rotN>
6

>  <b_rotR>
0.1875

>  <b_single>
30

>  <b_triple>
1

>  <chi0v>
15.591

>  <chi0v_C>
12.5246

>  <chi1v>
9.28015

>  <chi1v_C>
6.19338

>  <chiral>
0

>  <chiral_u>
0

>  <nmol>
1

>  <reactive>
0

>  <rings>
4

>  <Weight>
386.411

>  <a_heavy>
29

>  <a_nB>
0

>  <a_nBr>
0

>  <a_nC>
22

>  <a_nCl>
0

>  <a_nF>
0

>  <a_nI>
0

>  <a_nN>
4

>  <a_nO>
3

>  <a_nP>
0

>  <a_nS>
0

>  <b_heavy>
32

>  <chi0>
20.3801

>  <chi0_C>
14.5183

>  <chi1>
14.0966

>  <chi1_C>
8.44949

>  <FCharge>
0

>  <VAdjEq>
0.388286

>  <VAdjMa>
6

>  <zagreb>
154

>  <balabanJ>
1.28538

>  <PEOE_PC+>
2.46623

>  <PEOE_PC->
-2.46623

>  <PEOE_RPC+>
0.119656

>  <PEOE_RPC->
0.145547

>  <PEOE_VSA+0>
73.9323

>  <PEOE_VSA+1>
83.6282

>  <PEOE_VSA+2>
20.2995

>  <PEOE_VSA+3>
8.61901

>  <PEOE_VSA+4>
0

>  <PEOE_VSA+5>
34.3576

>  <PEOE_VSA+6>
0

>  <PEOE_VSA-0>
36.7647

>  <PEOE_VSA-1>
61.2745

>  <PEOE_VSA-2>
0

>  <PEOE_VSA-3>
17.7425

>  <PEOE_VSA-4>
0

>  <PEOE_VSA-5>
40.7008

>  <PEOE_VSA-6>
0.136891

>  <PEOE_VSA_FHYD>
0.800784

>  <PEOE_VSA_FNEG>
0.414934

>  <PEOE_VSA_FPNEG>
0.108192

>  <PEOE_VSA_FPOL>
0.199216

>  <PEOE_VSA_FPOS>
0.585066

>  <PEOE_VSA_FPPOS>
0.0910241

>  <PEOE_VSA_HYD>
302.261

>  <PEOE_VSA_NEG>
156.619

>  <PEOE_VSA_PNEG>
40.8377

>  <PEOE_VSA_POL>
75.1952

>  <PEOE_VSA_POS>
220.837

>  <PEOE_VSA_PPOS>
34.3576

>  <PC+>
5.326

>  <PC->
-5.327

>  <Q_PC+>
5.326

>  <Q_PC->
-5.327

>  <Q_RPC+>
0.123169

>  <Q_RPC->
0.123897

>  <Q_VSA_FHYD>
0.493359

>  <Q_VSA_FNEG>
0.482537

>  <Q_VSA_FPNEG>
0.1992

>  <Q_VSA_FPOL>
0.506641

>  <Q_VSA_FPOS>
0.517463

>  <Q_VSA_FPPOS>
0.307441

>  <Q_VSA_HYD>
186.221

>  <Q_VSA_NEG>
182.136

>  <Q_VSA_PNEG>
75.1892

>  <Q_VSA_POL>
191.235

>  <Q_VSA_POS>
195.319

>  <Q_VSA_PPOS>
116.045

>  <RPC+>
0.123169

>  <RPC->
0.123897

>  <lip_acc>
7

>  <lip_don>
1

>  <lip_druglike>
1

>  <lip_violation>
0

>  <opr_brigid>
22

>  <opr_leadlike>
1

>  <opr_nring>
4

>  <opr_nrot>
6

>  <opr_violation>
0

>  <E>
97.1304

>  <E_ang>
8.06578

>  <E_ele>
34.6584

>  <E_nb>
80.7629

>  <E_oop>
0.0192025

>  <E_sol>
-23.5358

>  <E_stb>
0.213726

>  <E_str>
6.31873

>  <E_strain>
0.00434085

>  <E_tor>
1.7501

>  <E_vdw>
46.1045

>  <E_rele>
0

>  <E_rnb>
-2.84217e-014

>  <E_rsol>
-2.84217e-014

>  <E_rvdw>
0

>  <Kier1>
22.2031

>  <Kier2>
10.08

>  <Kier3>
4.76896

>  <KierA1>
14.5715

>  <KierA2>
6.50641

>  <KierA3>
3.04065

>  <KierFlex>
3.26924

>  <logS>
-4.38052

>  <MNDO_dipole>
2.73359

>  <MNDO_E>
-112065

>  <MNDO_Eele>
-826481

>  <MNDO_HF>
14.5939

>  <MNDO_HOMO>
-9.19744

>  <MNDO_IP>
9.19744

>  <MNDO_LUMO>
-0.9965

>  <apol>
57.5283

>  <bpol>
27.8317

>  <mr>
10.8678

>  <dipole>
0.785194

>  <dipoleX>
0.761636

>  <dipoleY>
-0.189894

>  <dipoleZ>
0.0195076

>  <pmi>
9745.63

>  <pmiX>
7615.42

>  <pmiY>
1601.18

>  <pmiZ>
529.036

>  <rgyr>
5.02204

>  <a_acc>
4

>  <a_acid>
0

>  <a_base>
0

>  <a_don>
1

>  <a_hyd>
18

>  <vsa_acc>
58.4433

>  <vsa_acid>
0

>  <vsa_base>
0

>  <vsa_don>
5.68258

>  <vsa_hyd>
243.499

>  <vsa_other>
54.6571

>  <vsa_pol>
64.1258

>  <PM3_dipole>
2.60614

>  <PM3_E>
-101741

>  <PM3_Eele>
-824229

>  <PM3_HF>
0.13765

>  <PM3_HOMO>
-9.17836

>  <PM3_IP>
9.17836

>  <PM3_LUMO>
-1.0885

>  <SlogP>
2.20688

>  <SlogP_VSA0>
0

>  <SlogP_VSA1>
22.4538

>  <SlogP_VSA2>
40.6477

>  <SlogP_VSA3>
121.419

>  <SlogP_VSA4>
57.2812

>  <SlogP_VSA5>
0

>  <SlogP_VSA6>
0

>  <SlogP_VSA7>
163.077

>  <SlogP_VSA8>
0

>  <SlogP_VSA9>
0

>  <SMR>
10.627

>  <SMR_VSA0>
71.5866

>  <SMR_VSA1>
37.308

>  <SMR_VSA2>
16.7855

>  <SMR_VSA3>
26.1585

>  <SMR_VSA4>
4.7171

>  <SMR_VSA5>
158.36

>  <SMR_VSA6>
89.9635

>  <SMR_VSA7>
0

>  <ASA>
652.256

>  <ASA+>
265.523

>  <ASA->
280.392

>  <ASA_H>
428.171

>  <ASA_P>
224.084

>  <CASA+>
1414.18

>  <CASA->
1493.65

>  <DASA>
14.8692

>  <DCASA>
79.4737

>  <FASA+>
0.407085

>  <FASA->
0.429881

>  <FASA_H>
0.656447

>  <FASA_P>
0.343553

>  <FCASA+>
2.16813

>  <FCASA->
2.28998

>  <VSA>
402.079

>  <TPSA>
97.27

>  <density>
0.756079

>  <vdw_area>
377.456

>  <vdw_vol>
511.072

>  <vsurf_A>
1.76134

>  <vsurf_CP>
0.122649

>  <vsurf_CW1>
2.7081

>  <vsurf_CW2>
2.24832

>  <vsurf_CW3>
1.47459

>  <vsurf_CW4>
0.623512

>  <vsurf_CW5>
0.249761

>  <vsurf_CW6>
0.0707074

>  <vsurf_CW7>
0.00578451

>  <vsurf_CW8>
0

>  <vsurf_D1>
958.5

>  <vsurf_D2>
569

>  <vsurf_D3>
424.75

>  <vsurf_D4>
355.25

>  <vsurf_D5>
304.375

>  <vsurf_D6>
247

>  <vsurf_D7>
158

>  <vsurf_D8>
97.125

>  <vsurf_DD12>
5.40833

>  <vsurf_DD13>
5.24404

>  <vsurf_DD23>
0.5

>  <vsurf_DW12>
5.38516

>  <vsurf_DW13>
5.67891

>  <vsurf_DW23>
0.5

>  <vsurf_EDmin1>
-2.68275

>  <vsurf_EDmin2>
-2.58352

>  <vsurf_EDmin3>
-2.57508

>  <vsurf_EWmin1>
-5.70782

>  <vsurf_EWmin2>
-5.31026

>  <vsurf_EWmin3>
-5.27365

>  <vsurf_G>
1.36963

>  <vsurf_HB1>
380.625

>  <vsurf_HB2>
432.375

>  <vsurf_HB3>
361.75

>  <vsurf_HB4>
129.375

>  <vsurf_HB5>
40.875

>  <vsurf_HB6>
9.125

>  <vsurf_HB7>
1.25

>  <vsurf_HB8>
0

>  <vsurf_HL1>
0.11183

>  <vsurf_HL2>
0.031316

>  <vsurf_ID1>
0.354263

>  <vsurf_ID2>
0.452358

>  <vsurf_ID3>
0.448179

>  <vsurf_ID4>
0.574153

>  <vsurf_ID5>
0.768987

>  <vsurf_ID6>
0.700075

>  <vsurf_ID7>
1.20678

>  <vsurf_ID8>
2.42407

>  <vsurf_IW1>
0.894106

>  <vsurf_IW2>
1.49592

>  <vsurf_IW3>
1.74851

>  <vsurf_IW4>
1.75909

>  <vsurf_IW5>
1.67965

>  <vsurf_IW6>
1.24353

>  <vsurf_IW7>
3.65236

>  <vsurf_IW8>
0

>  <vsurf_R>
1.43414

>  <vsurf_S>
597.657

>  <vsurf_V>
857.125

>  <vsurf_W1>
1516.63

>  <vsurf_W2>
916.125

>  <vsurf_W3>
453

>  <vsurf_W4>
145.375

>  <vsurf_W5>
47.5

>  <vsurf_W6>
11.125

>  <vsurf_W7>
1.25

>  <vsurf_W8>
0

>  <vsurf_Wp1>
1136

>  <vsurf_Wp2>
483.75

>  <vsurf_Wp3>
91.25

>  <vsurf_Wp4>
16

>  <vsurf_Wp5>
6.625

>  <vsurf_Wp6>
2

>  <vsurf_Wp7>
0

>  <vsurf_Wp8>
0

>  <dens>
1.05577

>  <glob>
0.0556989

>  <std_dim1>
4.84268

>  <std_dim2>
1.38906

>  <std_dim3>
1.1429

>  <vol>
366

>  <logP(o/w)>
1.741

$$$$
D3.cdx
  MOE2008           3D

 46 49  0  0  0  0  0  0  0  0999 V2000
   -5.4630   -6.8610   -0.9500 C   0  0  0  0  0  0  0  0  0  0  0  0
   -5.5780   -7.8860   -1.8810 C   0  0  0  0  0  0  0  0  0  0  0  0
   -4.5590   -8.8210   -2.0630 C   0  0  0  0  0  0  0  0  0  0  0  0
   -4.6680   -9.6140   -2.7960 H   0  0  0  0  0  0  0  0  0  0  0  0
   -3.4100   -8.6910   -1.2720 C   0  0  0  0  0  0  0  0  0  0  0  0
   -3.2530   -7.6800   -0.3170 C   0  0  0  0  0  0  0  0  0  0  0  0
   -4.3080   -6.7500   -0.1650 C   0  0  0  0  0  0  0  0  0  0  0  0
   -2.2720   -9.4610   -1.2460 N   0  0  0  0  0  0  0  0  0  0  0  0
   -2.1110  -10.2710   -1.8300 H   0  0  0  0  0  0  0  0  0  0  0  0
   -1.3940   -8.9710   -0.3180 C   0  0  0  0  0  0  0  0  0  0  0  0
   -0.4420   -9.4640   -0.1630 H   0  0  0  0  0  0  0  0  0  0  0  0
   -1.9660   -7.8720    0.2990 C   0  0  0  0  0  0  0  0  0  0  0  0
   -1.3430   -7.0980    1.3700 C   0  0  0  0  0  0  0  0  0  0  0  0
    0.0880   -7.3940    1.7920 C   0  0  0  0  0  0  0  0  0  0  0  0
    1.0780   -6.5200    1.3440 N   0  0  0  0  0  0  0  0  0  0  0  0
    2.4740   -6.7880    1.6960 C   0  0  0  0  0  0  0  0  0  0  0  0
    2.6630   -6.2710    2.6450 H   0  0  0  0  0  0  0  0  0  0  0  0
    2.6200   -7.8590    1.8700 H   0  0  0  0  0  0  0  0  0  0  0  0
    3.4480   -6.2900    0.6230 C   0  0  0  0  0  0  0  0  0  0  0  0
    3.2800   -6.8450   -0.3070 H   0  0  0  0  0  0  0  0  0  0  0  0
    4.4780   -6.4650    0.9460 H   0  0  0  0  0  0  0  0  0  0  0  0
    3.2580   -4.8650    0.3090 N   0  0  0  0  0  0  0  0  0  0  0  0
    1.9440   -4.2920    0.6110 C   0  0  0  0  0  0  0  0  0  0  0  0
    2.0070   -3.8870    1.6290 H   0  0  0  0  0  0  0  0  0  0  0  0
    1.7370   -3.4550   -0.0630 H   0  0  0  0  0  0  0  0  0  0  0  0
    0.8150   -5.3250    0.5290 C   0  0  0  0  0  0  0  0  0  0  0  0
    0.7000   -5.6740   -0.5040 H   0  0  0  0  0  0  0  0  0  0  0  0
   -0.1280   -4.8630    0.8310 H   0  0  0  0  0  0  0  0  0  0  0  0
    4.2410   -4.0270   -0.2170 C   0  0  0  0  0  0  0  0  0  0  0  0
    5.5220   -4.6240   -0.6590 C   0  0  0  0  0  0  0  0  0  0  0  0
    5.5470   -5.5750   -1.6850 C   0  0  0  0  0  0  0  0  0  0  0  0
    4.6280   -5.8950   -2.1690 H   0  0  0  0  0  0  0  0  0  0  0  0
    6.7680   -6.1070   -2.0990 C   0  0  0  0  0  0  0  0  0  0  0  0
    6.7980   -6.8490   -2.8930 H   0  0  0  0  0  0  0  0  0  0  0  0
    7.9550   -5.6770   -1.5030 C   0  0  0  0  0  0  0  0  0  0  0  0
    8.9060   -6.0900   -1.8300 H   0  0  0  0  0  0  0  0  0  0  0  0
    7.9280   -4.7090   -0.4970 C   0  0  0  0  0  0  0  0  0  0  0  0
    8.8560   -4.3690   -0.0450 H   0  0  0  0  0  0  0  0  0  0  0  0
    6.7100   -4.1740   -0.0760 C   0  0  0  0  0  0  0  0  0  0  0  0
    6.6900   -3.4130    0.6990 H   0  0  0  0  0  0  0  0  0  0  0  0
   -1.9160   -6.1990    1.9790 O   0  0  0  0  0  0  0  0  0  0  0  0
    0.2810   -8.3860    2.4860 O   0  0  0  0  0  0  0  0  0  0  0  0
    4.1190   -2.8110   -0.3320 O   0  0  0  0  0  0  0  0  0  0  0  0
   -4.2170   -5.7470    0.7200 F   0  0  0  0  0  0  0  0  0  0  0  0
   -6.8690   -5.6090   -0.7440 Br  0  0  0  0  0  0  0  0  0  0  0  0
   -6.6830   -7.9990   -2.6350 F   0  0  0  0  0  0  0  0  0  0  0  0
  1  2  1  0  0  0  0
  1  7  2  0  0  0  0
  1 45  1  0  0  0  0
  2  3  2  0  0  0  0
  2 46  1  0  0  0  0
  3  4  1  0  0  0  0
  3  5  1  0  0  0  0
  5  6  2  0  0  0  0
  5  8  1  0  0  0  0
  6  7  1  0  0  0  0
  6 12  1  0  0  0  0
  7 44  1  0  0  0  0
  8  9  1  0  0  0  0
  8 10  1  0  0  0  0
 10 11  1  0  0  0  0
 10 12  2  0  0  0  0
 12 13  1  0  0  0  0
 13 14  1  0  0  0  0
 13 41  2  0  0  0  0
 14 15  1  0  0  0  0
 14 42  2  0  0  0  0
 15 16  1  0  0  0  0
 15 26  1  0  0  0  0
 16 17  1  0  0  0  0
 16 18  1  0  0  0  0
 16 19  1  0  0  0  0
 19 20  1  0  0  0  0
 19 21  1  0  0  0  0
 19 22  1  0  0  0  0
 22 23  1  0  0  0  0
 22 29  1  0  0  0  0
 23 24  1  0  0  0  0
 23 25  1  0  0  0  0
 23 26  1  0  0  0  0
 26 27  1  0  0  0  0
 26 28  1  0  0  0  0
 29 30  1  0  0  0  0
 29 43  2  0  0  0  0
 30 31  1  0  0  0  0
 30 39  2  0  0  0  0
 31 32  1  0  0  0  0
 31 33  2  0  0  0  0
 33 34  1  0  0  0  0
 33 35  1  0  0  0  0
 35 36  1  0  0  0  0
 35 37  2  0  0  0  0
 37 38  1  0  0  0  0
 37 39  1  0  0  0  0
 39 40  1  0  0  0  0
M  END
>  <Activity>
7.6363

>  <AM1_dipole>
7.34853

>  <AM1_E>
-134029

>  <AM1_Eele>
-947203

>  <AM1_HF>
-71.9994

>  <AM1_HOMO>
-9.13692

>  <AM1_IP>
9.13692

>  <AM1_LUMO>
-0.97501

>  <diameter>
16

>  <petitjean>
0.5

>  <petitjeanSC>
1

>  <radius>
8

>  <VDistEq>
3.7345

>  <VDistMa>
9.49332

>  <weinerPath>
2654

>  <weinerPol>
53

>  <BCUT_PEOE_0>
-2.71188

>  <BCUT_PEOE_1>
-0.647623

>  <BCUT_PEOE_2>
0.636226

>  <BCUT_PEOE_3>
2.6503

>  <BCUT_SLOGP_0>
-2.86001

>  <BCUT_SLOGP_1>
-0.53808

>  <BCUT_SLOGP_2>
0.805915

>  <BCUT_SLOGP_3>
2.5034

>  <BCUT_SMR_0>
-2.43203

>  <BCUT_SMR_1>
-0.423383

>  <BCUT_SMR_2>
0.854311

>  <BCUT_SMR_3>
2.92024

>  <GCUT_PEOE_0>
-0.859282

>  <GCUT_PEOE_1>
-0.420964

>  <GCUT_PEOE_2>
0.080099

>  <GCUT_PEOE_3>
2.65509

>  <GCUT_SLOGP_0>
-0.976487

>  <GCUT_SLOGP_1>
-0.324647

>  <GCUT_SLOGP_2>
0.232898

>  <GCUT_SLOGP_3>
2.63705

>  <GCUT_SMR_0>
-0.508911

>  <GCUT_SMR_1>
-0.216057

>  <GCUT_SMR_2>
0.233024

>  <GCUT_SMR_3>
2.92502

>  <a_aro>
15

>  <a_count>
46

>  <a_IC>
86.3354

>  <a_ICM>
1.87686

>  <a_nH>
16

>  <b_1rotN>
5

>  <b_1rotR>
0.151515

>  <b_ar>
16

>  <b_count>
49

>  <b_double>
3

>  <b_rotN>
5

>  <b_rotR>
0.151515

>  <b_single>
30

>  <b_triple>
0

>  <chi0v>
17.2089

>  <chi0v_C>
11.8699

>  <chi1v>
9.99983

>  <chi1v_C>
5.77671

>  <chiral>
0

>  <chiral_u>
0

>  <nmol>
1

>  <reactive>
0

>  <rings>
4

>  <Weight>
476.277

>  <a_heavy>
30

>  <a_nB>
0

>  <a_nBr>
1

>  <a_nC>
21

>  <a_nCl>
0

>  <a_nF>
2

>  <a_nI>
0

>  <a_nN>
3

>  <a_nO>
3

>  <a_nP>
0

>  <a_nS>
0

>  <b_heavy>
33

>  <chi0>
21.4135

>  <chi0_C>
13.5517

>  <chi1>
14.3799

>  <chi1_C>
7.70791

>  <FCharge>
0

>  <VAdjEq>
0.378242

>  <VAdjMa>
6.04439

>  <zagreb>
162

>  <balabanJ>
1.31258

>  <PEOE_PC+>
2.57556

>  <PEOE_PC->
-2.57556

>  <PEOE_RPC+>
0.114577

>  <PEOE_RPC->
0.139699

>  <PEOE_VSA+0>
73.9323

>  <PEOE_VSA+1>
75.1411

>  <PEOE_VSA+2>
18.0417

>  <PEOE_VSA+3>
8.61901

>  <PEOE_VSA+4>
0

>  <PEOE_VSA+5>
34.3576

>  <PEOE_VSA+6>
0

>  <PEOE_VSA-0>
80.3896

>  <PEOE_VSA-1>
36.7647

>  <PEOE_VSA-2>
0

>  <PEOE_VSA-3>
0

>  <PEOE_VSA-4>
23.8173

>  <PEOE_VSA-5>
40.7008

>  <PEOE_VSA-6>
0.136891

>  <PEOE_VSA_FHYD>
0.747353

>  <PEOE_VSA_FNEG>
0.463916

>  <PEOE_VSA_FPNEG>
0.164978

>  <PEOE_VSA_FPOL>
0.252647

>  <PEOE_VSA_FPOS>
0.536084

>  <PEOE_VSA_FPPOS>
0.0876691

>  <PEOE_VSA_HYD>
292.888

>  <PEOE_VSA_NEG>
181.809

>  <PEOE_VSA_PNEG>
64.6549

>  <PEOE_VSA_POL>
99.0125

>  <PEOE_VSA_POS>
210.092

>  <PEOE_VSA_PPOS>
34.3576

>  <PC+>
4.96

>  <PC->
-4.961

>  <Q_PC+>
4.96

>  <Q_PC->
-4.961

>  <Q_RPC+>
0.132258

>  <Q_RPC->
0.133038

>  <Q_VSA_FHYD>
0.609104

>  <Q_VSA_FNEG>
0.529027

>  <Q_VSA_FPNEG>
0.146585

>  <Q_VSA_FPOL>
0.390896

>  <Q_VSA_FPOS>
0.470973

>  <Q_VSA_FPPOS>
0.244312

>  <Q_VSA_HYD>
238.708

>  <Q_VSA_NEG>
207.326

>  <Q_VSA_PNEG>
57.4467

>  <Q_VSA_POL>
153.193

>  <Q_VSA_POS>
184.575

>  <Q_VSA_PPOS>
95.7459

>  <RPC+>
0.132258

>  <RPC->
0.133038

>  <lip_acc>
6

>  <lip_don>
1

>  <lip_druglike>
1

>  <lip_violation>
0

>  <opr_brigid>
22

>  <opr_leadlike>
1

>  <opr_nring>
4

>  <opr_nrot>
5

>  <opr_violation>
1

>  <E>
97.261

>  <E_ang>
7.21822

>  <E_ele>
33.2999

>  <E_nb>
79.2725

>  <E_oop>
0.0508301

>  <E_sol>
-22.8595

>  <E_stb>
0.590578

>  <E_str>
6.12553

>  <E_strain>
0.00507934

>  <E_tor>
4.00336

>  <E_vdw>
45.9726

>  <E_rele>
0

>  <E_rnb>
0

>  <E_rsol>
0

>  <E_rvdw>
0

>  <Kier1>
23.168

>  <Kier2>
9.86806

>  <Kier3>
4.71553

>  <KierA1>
17.5986

>  <KierA2>
7.41988

>  <KierA3>
3.52013

>  <KierFlex>
4.35265

>  <logS>
-5.70994

>  <MNDO_dipole>
8.4044

>  <MNDO_E>
-133834

>  <MNDO_Eele>
-941377

>  <MNDO_HF>
-96.8812

>  <MNDO_HOMO>
-9.30251

>  <MNDO_IP>
9.30251

>  <MNDO_LUMO>
-1.15234

>  <apol>
57.4987

>  <bpol>
28.6813

>  <mr>
11.1501

>  <dipole>
2.22221

>  <dipoleX>
1.15732

>  <dipoleY>
-1.5687

>  <dipoleZ>
-1.06677

>  <pmi>
12945.4

>  <pmiX>
10972.6

>  <pmiY>
1197.93

>  <pmiZ>
774.894

>  <rgyr>
5.21349

>  <a_acc>
3

>  <a_acid>
0

>  <a_base>
0

>  <a_don>
1

>  <a_hyd>
21

>  <vsa_acc>
40.7008

>  <vsa_acid>
0

>  <vsa_base>
0

>  <vsa_don>
5.68258

>  <vsa_hyd>
297.41

>  <vsa_other>
34.3576

>  <vsa_pol>
46.3833

>  <PM3_dipole>
7.62348

>  <PM3_E>
-123028

>  <PM3_Eele>
-924957

>  <PM3_HF>
-104.275

>  <PM3_HOMO>
-9.21529

>  <PM3_IP>
9.21529

>  <PM3_LUMO>
-1.02812

>  <SlogP>
3.3759

>  <SlogP_VSA0>
0

>  <SlogP_VSA1>
22.4538

>  <SlogP_VSA2>
58.8898

>  <SlogP_VSA3>
73.7583

>  <SlogP_VSA4>
54.0956

>  <SlogP_VSA5>
3.0551

>  <SlogP_VSA6>
0

>  <SlogP_VSA7>
127.791

>  <SlogP_VSA8>
0

>  <SlogP_VSA9>
75.8743

>  <SMR>
10.9171

>  <SMR_VSA0>
71.5866

>  <SMR_VSA1>
36.1689

>  <SMR_VSA2>
38.0827

>  <SMR_VSA3>
6.37115

>  <SMR_VSA4>
4.7171

>  <SMR_VSA5>
123.073

>  <SMR_VSA6>
89.9635

>  <SMR_VSA7>
45.9541

>  <ASA>
670.935

>  <ASA+>
224.951

>  <ASA->
337.387

>  <ASA_H>
516.708

>  <ASA_P>
154.227

>  <CASA+>
1115.76

>  <CASA->
1673.77

>  <DASA>
112.436

>  <DCASA>
558.02

>  <FASA+>
0.335279

>  <FASA->
0.50286

>  <FASA_H>
0.770132

>  <FASA_P>
0.229868

>  <FCASA+>
1.66298

>  <FCASA->
2.49469

>  <VSA>
412.475

>  <TPSA>
73.48

>  <density>
0.91431

>  <vdw_area>
391.901

>  <vdw_vol>
520.914

>  <vsurf_A>
2.96389

>  <vsurf_CP>
0.117852

>  <vsurf_CW1>
2.6792

>  <vsurf_CW2>
2.21206

>  <vsurf_CW3>
1.52598

>  <vsurf_CW4>
0.667275

>  <vsurf_CW5>
0.242066

>  <vsurf_CW6>
0.0706191

>  <vsurf_CW7>
0.00501279

>  <vsurf_CW8>
0

>  <vsurf_D1>
922.375

>  <vsurf_D2>
532.25

>  <vsurf_D3>
391.625

>  <vsurf_D4>
322.625

>  <vsurf_D5>
271.875

>  <vsurf_D6>
216.875

>  <vsurf_D7>
127.375

>  <vsurf_D8>
74.625

>  <vsurf_DD12>
3.77492

>  <vsurf_DD13>
0.5

>  <vsurf_DD23>
3.53553

>  <vsurf_DW12>
0.5

>  <vsurf_DW13>
0.707107

>  <vsurf_DW23>
1.11803

>  <vsurf_EDmin1>
-2.72049

>  <vsurf_EDmin2>
-2.70728

>  <vsurf_EDmin3>
-2.66744

>  <vsurf_EWmin1>
-5.47264

>  <vsurf_EWmin2>
-5.34156

>  <vsurf_EWmin3>
-5.22013

>  <vsurf_G>
1.37311

>  <vsurf_HB1>
343.125

>  <vsurf_HB2>
459.625

>  <vsurf_HB3>
389.375

>  <vsurf_HB4>
138.5

>  <vsurf_HB5>
40.125

>  <vsurf_HB6>
9.25

>  <vsurf_HB7>
1

>  <vsurf_HB8>
0

>  <vsurf_HL1>
0.11714

>  <vsurf_HL2>
0.0337079

>  <vsurf_ID1>
1.58186

>  <vsurf_ID2>
1.81815

>  <vsurf_ID3>
2.01279

>  <vsurf_ID4>
2.38582

>  <vsurf_ID5>
2.73628

>  <vsurf_ID6>
2.88704

>  <vsurf_ID7>
2.59221

>  <vsurf_ID8>
1.8925

>  <vsurf_IW1>
0.82079

>  <vsurf_IW2>
0.426008

>  <vsurf_IW3>
0.737711

>  <vsurf_IW4>
1.48933

>  <vsurf_IW5>
2.40436

>  <vsurf_IW6>
2.70216

>  <vsurf_IW7>
3.94905

>  <vsurf_IW8>
0

>  <vsurf_R>
1.43839

>  <vsurf_S>
605.797

>  <vsurf_V>
871.375

>  <vsurf_W1>
1502.38

>  <vsurf_W2>
922.875

>  <vsurf_W3>
484.125

>  <vsurf_W4>
154.5

>  <vsurf_W5>
45.875

>  <vsurf_W6>
10.875

>  <vsurf_W7>
1

>  <vsurf_W8>
0

>  <vsurf_Wp1>
1159.25

>  <vsurf_Wp2>
463.25

>  <vsurf_Wp3>
94.75

>  <vsurf_Wp4>
16

>  <vsurf_Wp5>
5.75

>  <vsurf_Wp6>
1.625

>  <vsurf_Wp7>
0

>  <vsurf_Wp8>
0

>  <dens>
1.25625

>  <glob>
0.0764842

>  <std_dim1>
4.50592

>  <std_dim2>
1.59409

>  <std_dim3>
1.24615

>  <vol>
379.125

>  <logP(o/w)>
3.218

$$$$
D3.cdx
  MOE2008           3D

 54 57  0  0  0  0  0  0  0  0999 V2000
   -4.6730  -10.5510   -0.2950 C   0  0  0  0  0  0  0  0  0  0  0  0
   -4.8910  -11.5870    0.6180 C   0  0  0  0  0  0  0  0  0  0  0  0
   -3.8380  -12.4360    0.9790 C   0  0  0  0  0  0  0  0  0  0  0  0
   -3.9930  -13.2250    1.7090 H   0  0  0  0  0  0  0  0  0  0  0  0
   -2.5960  -12.2520    0.3540 C   0  0  0  0  0  0  0  0  0  0  0  0
   -2.3670  -11.2580   -0.5980 C   0  0  0  0  0  0  0  0  0  0  0  0
   -3.4330  -10.3950   -0.9310 C   0  0  0  0  0  0  0  0  0  0  0  0
   -3.2950   -9.6030   -1.6620 H   0  0  0  0  0  0  0  0  0  0  0  0
   -1.4190  -12.9450    0.5060 N   0  0  0  0  0  0  0  0  0  0  0  0
   -1.2920  -13.7290    1.1320 H   0  0  0  0  0  0  0  0  0  0  0  0
   -0.4520  -12.4220   -0.3110 C   0  0  0  0  0  0  0  0  0  0  0  0
    0.5420  -12.8530   -0.3200 H   0  0  0  0  0  0  0  0  0  0  0  0
   -1.0010  -11.3720   -1.0250 C   0  0  0  0  0  0  0  0  0  0  0  0
   -0.3060  -10.5520   -2.0100 C   0  0  0  0  0  0  0  0  0  0  0  0
    1.1700  -10.7800   -2.2890 C   0  0  0  0  0  0  0  0  0  0  0  0
    2.0720   -9.9300   -1.6510 N   0  0  0  0  0  0  0  0  0  0  0  0
    3.5080  -10.1320   -1.8510 C   0  0  0  0  0  0  0  0  0  0  0  0
    3.7080  -11.1730   -2.1250 H   0  0  0  0  0  0  0  0  0  0  0  0
    3.7980   -9.5040   -2.7020 H   0  0  0  0  0  0  0  0  0  0  0  0
    4.3200   -9.7470   -0.6100 C   0  0  0  0  0  0  0  0  0  0  0  0
    5.3890   -9.8620   -0.8140 H   0  0  0  0  0  0  0  0  0  0  0  0
    4.0560  -10.4130    0.2200 H   0  0  0  0  0  0  0  0  0  0  0  0
    4.0450   -8.3740   -0.1590 N   0  0  0  0  0  0  0  0  0  0  0  0
    2.7770   -7.7800   -0.5890 C   0  0  0  0  0  0  0  0  0  0  0  0
    2.4560   -7.0160    0.1280 H   0  0  0  0  0  0  0  0  0  0  0  0
    2.9760   -7.2730   -1.5410 H   0  0  0  0  0  0  0  0  0  0  0  0
    1.6700   -8.8220   -0.7730 C   0  0  0  0  0  0  0  0  0  0  0  0
    0.7710   -8.3400   -1.1660 H   0  0  0  0  0  0  0  0  0  0  0  0
    1.4120   -9.2700    0.1940 H   0  0  0  0  0  0  0  0  0  0  0  0
    4.9120   -7.5990    0.6110 C   0  0  0  0  0  0  0  0  0  0  0  0
    6.1350   -8.2290    1.1560 C   0  0  0  0  0  0  0  0  0  0  0  0
    6.0450   -9.2960    2.0570 C   0  0  0  0  0  0  0  0  0  0  0  0
    5.0780   -9.6810    2.3660 H   0  0  0  0  0  0  0  0  0  0  0  0
    7.2120   -9.8570    2.5740 C   0  0  0  0  0  0  0  0  0  0  0  0
    7.1550  -10.6880    3.2730 H   0  0  0  0  0  0  0  0  0  0  0  0
    8.4580   -9.3460    2.2040 C   0  0  0  0  0  0  0  0  0  0  0  0
    9.3660   -9.7830    2.6110 H   0  0  0  0  0  0  0  0  0  0  0  0
    8.5420   -8.2660    1.3220 C   0  0  0  0  0  0  0  0  0  0  0  0
    9.5140   -7.8630    1.0480 H   0  0  0  0  0  0  0  0  0  0  0  0
    7.3790   -7.7000    0.8010 C   0  0  0  0  0  0  0  0  0  0  0  0
    7.4440   -6.8510    0.1240 H   0  0  0  0  0  0  0  0  0  0  0  0
   -0.8560   -9.6540   -2.6440 O   0  0  0  0  0  0  0  0  0  0  0  0
    1.4710  -11.7010   -3.0400 O   0  0  0  0  0  0  0  0  0  0  0  0
    4.7320   -6.4110    0.8620 O   0  0  0  0  0  0  0  0  0  0  0  0
   -5.6610   -9.6630   -0.6350 O   0  0  0  0  0  0  0  0  0  0  0  0
   -6.0790  -11.8230    1.2650 O   0  0  0  0  0  0  0  0  0  0  0  0
   -5.6880   -8.5850    0.3030 C   0  0  0  0  0  0  0  0  0  0  0  0
   -6.4760   -7.8920   -0.0080 H   0  0  0  0  0  0  0  0  0  0  0  0
   -4.7380   -8.0390    0.3060 H   0  0  0  0  0  0  0  0  0  0  0  0
   -5.9270   -8.9390    1.3110 H   0  0  0  0  0  0  0  0  0  0  0  0
   -7.2040  -11.8880    0.3900 C   0  0  0  0  0  0  0  0  0  0  0  0
   -7.6700  -10.9020    0.2970 H   0  0  0  0  0  0  0  0  0  0  0  0
   -7.9400  -12.5570    0.8470 H   0  0  0  0  0  0  0  0  0  0  0  0
   -6.9510  -12.2950   -0.5950 H   0  0  0  0  0  0  0  0  0  0  0  0
  1  2  1  0  0  0  0
  1  7  2  0  0  0  0
  1 45  1  0  0  0  0
  2  3  2  0  0  0  0
  2 46  1  0  0  0  0
  3  4  1  0  0  0  0
  3  5  1  0  0  0  0
  5  6  2  0  0  0  0
  5  9  1  0  0  0  0
  6  7  1  0  0  0  0
  6 13  1  0  0  0  0
  7  8  1  0  0  0  0
  9 10  1  0  0  0  0
  9 11  1  0  0  0  0
 11 12  1  0  0  0  0
 11 13  2  0  0  0  0
 13 14  1  0  0  0  0
 14 15  1  0  0  0  0
 14 42  2  0  0  0  0
 15 16  1  0  0  0  0
 15 43  2  0  0  0  0
 16 17  1  0  0  0  0
 16 27  1  0  0  0  0
 17 18  1  0  0  0  0
 17 19  1  0  0  0  0
 17 20  1  0  0  0  0
 20 21  1  0  0  0  0
 20 22  1  0  0  0  0
 20 23  1  0  0  0  0
 23 24  1  0  0  0  0
 23 30  1  0  0  0  0
 24 25  1  0  0  0  0
 24 26  1  0  0  0  0
 24 27  1  0  0  0  0
 27 28  1  0  0  0  0
 27 29  1  0  0  0  0
 30 31  1  0  0  0  0
 30 44  2  0  0  0  0
 31 32  1  0  0  0  0
 31 40  2  0  0  0  0
 32 33  1  0  0  0  0
 32 34  2  0  0  0  0
 34 35  1  0  0  0  0
 34 36  1  0  0  0  0
 36 37  1  0  0  0  0
 36 38  2  0  0  0  0
 38 39  1  0  0  0  0
 38 40  1  0  0  0  0
 40 41  1  0  0  0  0
 45 47  1  0  0  0  0
 46 51  1  0  0  0  0
 47 48  1  0  0  0  0
 47 49  1  0  0  0  0
 47 50  1  0  0  0  0
 51 52  1  0  0  0  0
 51 53  1  0  0  0  0
 51 54  1  0  0  0  0
M  END
>  <Activity>
4.333

>  <AM1_dipole>
5.29822

>  <AM1_E>
-126409

>  <AM1_Eele>
-984061

>  <AM1_HF>
-69.056

>  <AM1_HOMO>
-8.87315

>  <AM1_IP>
8.87315

>  <AM1_LUMO>
-0.58889

>  <diameter>
17

>  <petitjean>
0.470588

>  <petitjeanSC>
0.888889

>  <radius>
9

>  <VDistEq>
3.81224

>  <VDistMa>
9.5867

>  <weinerPath>
2963

>  <weinerPol>
53

>  <BCUT_PEOE_0>
-2.71189

>  <BCUT_PEOE_1>
-0.608573

>  <BCUT_PEOE_2>
0.595148

>  <BCUT_PEOE_3>
2.65024

>  <BCUT_SLOGP_0>
-2.86001

>  <BCUT_SLOGP_1>
-0.544603

>  <BCUT_SLOGP_2>
0.673326

>  <BCUT_SLOGP_3>
2.50452

>  <BCUT_SMR_0>
-2.43203

>  <BCUT_SMR_1>
-0.397131

>  <BCUT_SMR_2>
0.742693

>  <BCUT_SMR_3>
2.92026

>  <GCUT_PEOE_0>
-0.860214

>  <GCUT_PEOE_1>
-0.425835

>  <GCUT_PEOE_2>
0.0657249

>  <GCUT_PEOE_3>
2.69623

>  <GCUT_SLOGP_0>
-0.976494

>  <GCUT_SLOGP_1>
-0.358589

>  <GCUT_SLOGP_2>
0.131005

>  <GCUT_SLOGP_3>
2.70835

>  <GCUT_SMR_0>
-0.508928

>  <GCUT_SMR_1>
-0.207876

>  <GCUT_SMR_2>
0.168979

>  <GCUT_SMR_3>
2.96902

>  <a_aro>
15

>  <a_count>
54

>  <a_IC>
86.3155

>  <a_ICM>
1.59844

>  <a_nH>
23

>  <b_1rotN>
7

>  <b_1rotR>
0.205882

>  <b_ar>
16

>  <b_count>
57

>  <b_double>
3

>  <b_rotN>
7

>  <b_rotR>
0.205882

>  <b_single>
38

>  <b_triple>
0

>  <chi0v>
17.3829

>  <chi0v_C>
13.9472

>  <chi1v>
9.94198

>  <chi1v_C>
5.85406

>  <chiral>
0

>  <chiral_u>
0

>  <nmol>
1

>  <reactive>
0

>  <rings>
4

>  <Weight>
421.453

>  <a_heavy>
31

>  <a_nB>
0

>  <a_nBr>
0

>  <a_nC>
23

>  <a_nCl>
0

>  <a_nF>
0

>  <a_nI>
0

>  <a_nN>
3

>  <a_nO>
5

>  <a_nP>
0

>  <a_nS>
0

>  <b_heavy>
34

>  <chi0>
21.9575

>  <chi0_C>
15.6814

>  <chi1>
15.0284

>  <chi1_C>
7.85774

>  <FCharge>
0

>  <VAdjEq>
0.368752

>  <VAdjMa>
6.08746

>  <zagreb>
164

>  <balabanJ>
1.2935

>  <PEOE_PC+>
2.83749

>  <PEOE_PC->
-2.83749

>  <PEOE_RPC+>
0.104

>  <PEOE_RPC->
0.12683

>  <PEOE_VSA+0>
130.627

>  <PEOE_VSA+1>
96.047

>  <PEOE_VSA+2>
16.917

>  <PEOE_VSA+3>
8.61901

>  <PEOE_VSA+4>
0

>  <PEOE_VSA+5>
34.3576

>  <PEOE_VSA+6>
0

>  <PEOE_VSA-0>
49.0196

>  <PEOE_VSA-1>
36.7647

>  <PEOE_VSA-2>
0

>  <PEOE_VSA-3>
0

>  <PEOE_VSA-4>
0

>  <PEOE_VSA-5>
40.7008

>  <PEOE_VSA-6>
5.1444

>  <PEOE_VSA_FHYD>
0.808218

>  <PEOE_VSA_FNEG>
0.314755

>  <PEOE_VSA_FPNEG>
0.109626

>  <PEOE_VSA_FPOL>
0.191782

>  <PEOE_VSA_FPOS>
0.685246

>  <PEOE_VSA_FPPOS>
0.0821564

>  <PEOE_VSA_HYD>
337.995

>  <PEOE_VSA_NEG>
131.629

>  <PEOE_VSA_PNEG>
45.8452

>  <PEOE_VSA_POL>
80.2027

>  <PEOE_VSA_POS>
286.568

>  <PEOE_VSA_PPOS>
34.3576

>  <PC+>
5.343

>  <PC->
-5.346

>  <Q_PC+>
5.343

>  <Q_PC->
-5.346

>  <Q_RPC+>
0.122777

>  <Q_RPC->
0.123457

>  <Q_VSA_FHYD>
0.50216

>  <Q_VSA_FNEG>
0.375771

>  <Q_VSA_FPNEG>
0.149341

>  <Q_VSA_FPOL>
0.49784

>  <Q_VSA_FPOS>
0.624229

>  <Q_VSA_FPPOS>
0.348499

>  <Q_VSA_HYD>
210.002

>  <Q_VSA_NEG>
157.147

>  <Q_VSA_PNEG>
62.4542

>  <Q_VSA_POL>
208.195

>  <Q_VSA_POS>
261.051

>  <Q_VSA_PPOS>
145.741

>  <RPC+>
0.122777

>  <RPC->
0.123457

>  <lip_acc>
8

>  <lip_don>
1

>  <lip_druglike>
1

>  <lip_violation>
0

>  <opr_brigid>
22

>  <opr_leadlike>
1

>  <opr_nring>
4

>  <opr_nrot>
7

>  <opr_violation>
0

>  <E>
120.241

>  <E_ang>
13.1794

>  <E_ele>
28.0054

>  <E_nb>
82.1576

>  <E_oop>
0.075963

>  <E_sol>
-23.4735

>  <E_stb>
0.586409

>  <E_str>
6.14158

>  <E_strain>
0.00637174

>  <E_tor>
18.0997

>  <E_vdw>
54.1522

>  <E_rele>
0

>  <E_rnb>
5.68434e-014

>  <E_rsol>
5.68434e-014

>  <E_rvdw>
0

>  <Kier1>
24.1349

>  <Kier2>
10.9505

>  <Kier3>
5.23947

>  <KierA1>
17.2153

>  <KierA2>
7.71604

>  <KierA3>
3.6589

>  <KierFlex>
4.28497

>  <logS>
-4.13035

>  <MNDO_dipole>
6.58242

>  <MNDO_E>
-126752

>  <MNDO_Eele>
-974821

>  <MNDO_HF>
-90.0041

>  <MNDO_HOMO>
-8.9325

>  <MNDO_IP>
8.9325

>  <MNDO_LUMO>
-0.64537

>  <apol>
63.1262

>  <bpol>
36.4698

>  <mr>
11.5631

>  <dipole>
1.44539

>  <dipoleX>
0.641665

>  <dipoleY>
-0.900461

>  <dipoleZ>
0.930902

>  <pmi>
11147.2

>  <pmiX>
9089.38

>  <pmiY>
1211.95

>  <pmiZ>
845.896

>  <rgyr>
5.14291

>  <a_acc>
5

>  <a_acid>
0

>  <a_base>
0

>  <a_don>
1

>  <a_hyd>
20

>  <vsa_acc>
45.7083

>  <vsa_acid>
0

>  <vsa_base>
0

>  <vsa_don>
5.68258

>  <vsa_hyd>
313.716

>  <vsa_other>
34.3576

>  <vsa_pol>
51.3909

>  <PM3_dipole>
5.98481

>  <PM3_E>
-116064

>  <PM3_Eele>
-964814

>  <PM3_HF>
-103.119

>  <PM3_HOMO>
-8.88337

>  <PM3_IP>
8.88337

>  <PM3_LUMO>
-0.65959

>  <SlogP>
2.3524

>  <SlogP_VSA0>
21.9998

>  <SlogP_VSA1>
22.4538

>  <SlogP_VSA2>
40.6477

>  <SlogP_VSA3>
73.7583

>  <SlogP_VSA4>
54.0956

>  <SlogP_VSA5>
70.7677

>  <SlogP_VSA6>
0

>  <SlogP_VSA7>
145.434

>  <SlogP_VSA8>
0

>  <SlogP_VSA9>
10.4869

>  <SMR>
11.4659

>  <SMR_VSA0>
71.5866

>  <SMR_VSA1>
28.2484

>  <SMR_VSA2>
16.7855

>  <SMR_VSA3>
16.858

>  <SMR_VSA4>
4.7171

>  <SMR_VSA5>
140.717

>  <SMR_VSA6>
89.9635

>  <SMR_VSA7>
70.7677

>  <ASA>
700.207

>  <ASA+>
263.66

>  <ASA->
227.159

>  <ASA_H>
477.394

>  <ASA_P>
222.813

>  <CASA+>
1408.73

>  <CASA->
1214.39

>  <DASA>
36.5009

>  <DCASA>
194.343

>  <FASA+>
0.376546

>  <FASA->
0.324417

>  <FASA_H>
0.68179

>  <FASA_P>
0.31821

>  <FCASA+>
2.01188

>  <FCASA->
1.73433

>  <VSA>
437.442

>  <TPSA>
91.94

>  <density>
0.75825

>  <vdw_area>
418.197

>  <vdw_vol>
555.823

>  <vsurf_A>
2.71934

>  <vsurf_CP>
0.131363

>  <vsurf_CW1>
2.63367

>  <vsurf_CW2>
2.04474

>  <vsurf_CW3>
1.38495

>  <vsurf_CW4>
0.60234

>  <vsurf_CW5>
0.21342

>  <vsurf_CW6>
0.0576875

>  <vsurf_CW7>
0.00396525

>  <vsurf_CW8>
0

>  <vsurf_D1>
923

>  <vsurf_D2>
553.75

>  <vsurf_D3>
423.625

>  <vsurf_D4>
362.625

>  <vsurf_D5>
310

>  <vsurf_D6>
231.25

>  <vsurf_D7>
132.625

>  <vsurf_D8>
81.75

>  <vsurf_DD12>
4.63681

>  <vsurf_DD13>
4.272

>  <vsurf_DD23>
0.5

>  <vsurf_DW12>
5.52268

>  <vsurf_DW13>
0.5

>  <vsurf_DW23>
5.93717

>  <vsurf_EDmin1>
-2.70843

>  <vsurf_EDmin2>
-2.70011

>  <vsurf_EDmin3>
-2.68345

>  <vsurf_EWmin1>
-5.26832

>  <vsurf_EWmin2>
-5.2645

>  <vsurf_EWmin3>
-5.25735

>  <vsurf_G>
1.3898

>  <vsurf_HB1>
366.375

>  <vsurf_HB2>
444

>  <vsurf_HB3>
365.375

>  <vsurf_HB4>
128.375

>  <vsurf_HB5>
35.875

>  <vsurf_HB6>
7.625

>  <vsurf_HB7>
1.125

>  <vsurf_HB8>
0

>  <vsurf_HL1>
0.0997344

>  <vsurf_HL2>
0.0251637

>  <vsurf_ID1>
1.15211

>  <vsurf_ID2>
1.07231

>  <vsurf_ID3>
1.02447

>  <vsurf_ID4>
1.13758

>  <vsurf_ID5>
1.32837

>  <vsurf_ID6>
1.94238

>  <vsurf_ID7>
1.70225

>  <vsurf_ID8>
1.26774

>  <vsurf_IW1>
0.138219

>  <vsurf_IW2>
0.537682

>  <vsurf_IW3>
1.13971

>  <vsurf_IW4>
1.61974

>  <vsurf_IW5>
1.85847

>  <vsurf_IW6>
2.98

>  <vsurf_IW7>
3.34006

>  <vsurf_IW8>
0

>  <vsurf_R>
1.45054

>  <vsurf_S>
638.812

>  <vsurf_V>
926.625

>  <vsurf_W1>
1511.25

>  <vsurf_W2>
903.25

>  <vsurf_W3>
459.625

>  <vsurf_W4>
145.25

>  <vsurf_W5>
42.25

>  <vsurf_W6>
9.125

>  <vsurf_W7>
1.125

>  <vsurf_W8>
0

>  <vsurf_Wp1>
1144.88

>  <vsurf_Wp2>
459.25

>  <vsurf_Wp3>
94.25

>  <vsurf_Wp4>
16.875

>  <vsurf_Wp5>
6.375

>  <vsurf_Wp6>
1.5

>  <vsurf_Wp7>
0

>  <vsurf_Wp8>
0

>  <dens>
1.06059

>  <glob>
0.0723753

>  <std_dim1>
5.08968

>  <std_dim2>
1.59508

>  <std_dim3>
1.36926

>  <vol>
397.375

>  <logP(o/w)>
1.81874

$$$$
D3.cdx
  MOE2008           3D

 46 49  0  0  0  0  0  0  0  0999 V2000
   -5.2780  -13.7280    1.7380 C   0  0  0  0  0  0  0  0  0  0  0  0
   -6.0900  -13.5930    0.6210 C   0  0  0  0  0  0  0  0  0  0  0  0
   -7.1090  -13.2410    0.7520 H   0  0  0  0  0  0  0  0  0  0  0  0
   -5.5960  -13.9070   -0.6450 C   0  0  0  0  0  0  0  0  0  0  0  0
   -4.2710  -14.3560   -0.7440 C   0  0  0  0  0  0  0  0  0  0  0  0
   -3.4390  -14.4990    0.3700 C   0  0  0  0  0  0  0  0  0  0  0  0
   -3.9600  -14.1770    1.6410 C   0  0  0  0  0  0  0  0  0  0  0  0
   -3.3560  -14.2690    2.5380 H   0  0  0  0  0  0  0  0  0  0  0  0
   -3.5340  -14.7290   -1.8450 N   0  0  0  0  0  0  0  0  0  0  0  0
   -3.8870  -14.7320   -2.7930 H   0  0  0  0  0  0  0  0  0  0  0  0
   -2.2680  -15.0890   -1.4700 C   0  0  0  0  0  0  0  0  0  0  0  0
   -1.5530  -15.4120   -2.2160 H   0  0  0  0  0  0  0  0  0  0  0  0
   -2.1670  -14.9660   -0.0960 C   0  0  0  0  0  0  0  0  0  0  0  0
   -0.9790  -15.2470    0.7000 C   0  0  0  0  0  0  0  0  0  0  0  0
    0.3310  -15.5880    0.0120 C   0  0  0  0  0  0  0  0  0  0  0  0
    1.2990  -14.5860   -0.0130 N   0  0  0  0  0  0  0  0  0  0  0  0
    2.5970  -14.8610   -0.6280 C   0  0  0  0  0  0  0  0  0  0  0  0
    2.8030  -15.9370   -0.6120 H   0  0  0  0  0  0  0  0  0  0  0  0
    2.5180  -14.5550   -1.6780 H   0  0  0  0  0  0  0  0  0  0  0  0
    3.7310  -14.0950    0.0600 C   0  0  0  0  0  0  0  0  0  0  0  0
    4.6770  -14.2840   -0.4570 H   0  0  0  0  0  0  0  0  0  0  0  0
    3.8300  -14.4430    1.0950 H   0  0  0  0  0  0  0  0  0  0  0  0
    3.4770  -12.6470    0.1200 N   0  0  0  0  0  0  0  0  0  0  0  0
    2.0830  -12.2150    0.0040 C   0  0  0  0  0  0  0  0  0  0  0  0
    1.9430  -11.2530    0.5100 H   0  0  0  0  0  0  0  0  0  0  0  0
    1.8930  -12.0540   -1.0640 H   0  0  0  0  0  0  0  0  0  0  0  0
    1.1000  -13.2480    0.5600 C   0  0  0  0  0  0  0  0  0  0  0  0
    0.0730  -12.9170    0.3830 H   0  0  0  0  0  0  0  0  0  0  0  0
    1.2380  -13.3490    1.6440 H   0  0  0  0  0  0  0  0  0  0  0  0
    4.4640  -11.6700    0.2470 C   0  0  0  0  0  0  0  0  0  0  0  0
    5.8580  -12.0960    0.5070 C   0  0  0  0  0  0  0  0  0  0  0  0
    6.1790  -12.8080    1.6670 C   0  0  0  0  0  0  0  0  0  0  0  0
    5.4120  -13.0640    2.3920 H   0  0  0  0  0  0  0  0  0  0  0  0
    7.5030  -13.1790    1.9010 C   0  0  0  0  0  0  0  0  0  0  0  0
    7.7610  -13.7370    2.7980 H   0  0  0  0  0  0  0  0  0  0  0  0
    8.5000  -12.8250    0.9890 C   0  0  0  0  0  0  0  0  0  0  0  0
    9.5320  -13.1120    1.1760 H   0  0  0  0  0  0  0  0  0  0  0  0
    8.1780  -12.0930   -0.1560 C   0  0  0  0  0  0  0  0  0  0  0  0
    8.9600  -11.8080   -0.8550 H   0  0  0  0  0  0  0  0  0  0  0  0
    6.8560  -11.7200   -0.3970 C   0  0  0  0  0  0  0  0  0  0  0  0
    6.6080  -11.1400   -1.2820 H   0  0  0  0  0  0  0  0  0  0  0  0
   -0.9640  -15.1880    1.9260 O   0  0  0  0  0  0  0  0  0  0  0  0
    0.4460  -16.7060   -0.4770 O   0  0  0  0  0  0  0  0  0  0  0  0
    4.2550  -10.4640    0.1460 O   0  0  0  0  0  0  0  0  0  0  0  0
   -5.7710  -13.4190    2.9450 F   0  0  0  0  0  0  0  0  0  0  0  0
   -6.7090  -13.7160   -2.1610 Br  0  0  0  0  0  0  0  0  0  0  0  0
  1  2  1  0  0  0  0
  1  7  2  0  0  0  0
  1 45  1  0  0  0  0
  2  3  1  0  0  0  0
  2  4  2  0  0  0  0
  4  5  1  0  0  0  0
  4 46  1  0  0  0  0
  5  6  2  0  0  0  0
  5  9  1  0  0  0  0
  6  7  1  0  0  0  0
  6 13  1  0  0  0  0
  7  8  1  0  0  0  0
  9 10  1  0  0  0  0
  9 11  1  0  0  0  0
 11 12  1  0  0  0  0
 11 13  2  0  0  0  0
 13 14  1  0  0  0  0
 14 15  1  0  0  0  0
 14 42  2  0  0  0  0
 15 16  1  0  0  0  0
 15 43  2  0  0  0  0
 16 17  1  0  0  0  0
 16 27  1  0  0  0  0
 17 18  1  0  0  0  0
 17 19  1  0  0  0  0
 17 20  1  0  0  0  0
 20 21  1  0  0  0  0
 20 22  1  0  0  0  0
 20 23  1  0  0  0  0
 23 24  1  0  0  0  0
 23 30  1  0  0  0  0
 24 25  1  0  0  0  0
 24 26  1  0  0  0  0
 24 27  1  0  0  0  0
 27 28  1  0  0  0  0
 27 29  1  0  0  0  0
 30 31  1  0  0  0  0
 30 44  2  0  0  0  0
 31 32  1  0  0  0  0
 31 40  2  0  0  0  0
 32 33  1  0  0  0  0
 32 34  2  0  0  0  0
 34 35  1  0  0  0  0
 34 36  1  0  0  0  0
 36 37  1  0  0  0  0
 36 38  2  0  0  0  0
 38 39  1  0  0  0  0
 38 40  1  0  0  0  0
 40 41  1  0  0  0  0
M  END
>  <Activity>
7.136

>  <AM1_dipole>
4.75418

>  <AM1_E>
-123168

>  <AM1_Eele>
-874181

>  <AM1_HF>
-36.6026

>  <AM1_HOMO>
-9.21198

>  <AM1_IP>
9.21198

>  <AM1_LUMO>
-0.92397

>  <diameter>
15

>  <petitjean>
0.466667

>  <petitjeanSC>
0.875

>  <radius>
8

>  <VDistEq>
3.70706

>  <VDistMa>
9.39434

>  <weinerPath>
2440

>  <weinerPol>
49

>  <BCUT_PEOE_0>
-2.71189

>  <BCUT_PEOE_1>
-0.645663

>  <BCUT_PEOE_2>
0.648698

>  <BCUT_PEOE_3>
2.65024

>  <BCUT_SLOGP_0>
-2.86001

>  <BCUT_SLOGP_1>
-0.53808

>  <BCUT_SLOGP_2>
0.805915

>  <BCUT_SLOGP_3>
2.50352

>  <BCUT_SMR_0>
-2.43203

>  <BCUT_SMR_1>
-0.423921

>  <BCUT_SMR_2>
0.854311

>  <BCUT_SMR_3>
2.92025

>  <GCUT_PEOE_0>
-0.85764

>  <GCUT_PEOE_1>
-0.403812

>  <GCUT_PEOE_2>
0.080099

>  <GCUT_PEOE_3>
2.65162

>  <GCUT_SLOGP_0>
-0.976486

>  <GCUT_SLOGP_1>
-0.303921

>  <GCUT_SLOGP_2>
0.212035

>  <GCUT_SLOGP_3>
2.63957

>  <GCUT_SMR_0>
-0.508911

>  <GCUT_SMR_1>
-0.216057

>  <GCUT_SMR_2>
0.232132

>  <GCUT_SMR_3>
2.92596

>  <a_aro>
15

>  <a_count>
46

>  <a_IC>
82.8485

>  <a_ICM>
1.80106

>  <a_nH>
17

>  <b_1rotN>
5

>  <b_1rotR>
0.15625

>  <b_ar>
16

>  <b_count>
49

>  <b_double>
3

>  <b_rotN>
5

>  <b_rotR>
0.15625

>  <b_single>
30

>  <b_triple>
0

>  <chi0v>
16.9083

>  <chi0v_C>
11.9472

>  <chi1v>
9.88819

>  <chi1v_C>
5.85406

>  <chiral>
0

>  <chiral_u>
0

>  <nmol>
1

>  <reactive>
0

>  <rings>
4

>  <Weight>
458.287

>  <a_heavy>
29

>  <a_nB>
0

>  <a_nBr>
1

>  <a_nC>
21

>  <a_nCl>
0

>  <a_nF>
1

>  <a_nI>
0

>  <a_nN>
3

>  <a_nO>
3

>  <a_nP>
0

>  <a_nS>
0

>  <b_heavy>
32

>  <chi0>
20.5432

>  <chi0_C>
13.6814

>  <chi1>
13.9524

>  <chi1_C>
7.85774

>  <FCharge>
0

>  <VAdjEq>
0.388286

>  <VAdjMa>
6

>  <zagreb>
156

>  <balabanJ>
1.29511

>  <PEOE_PC+>
2.40208

>  <PEOE_PC->
-2.40208

>  <PEOE_RPC+>
0.122852

>  <PEOE_RPC->
0.149492

>  <PEOE_VSA+0>
76.1845

>  <PEOE_VSA+1>
77.1543

>  <PEOE_VSA+2>
9.02085

>  <PEOE_VSA+3>
8.61901

>  <PEOE_VSA+4>
0

>  <PEOE_VSA+5>
34.3576

>  <PEOE_VSA+6>
0

>  <PEOE_VSA-0>
92.6445

>  <PEOE_VSA-1>
36.7647

>  <PEOE_VSA-2>
0

>  <PEOE_VSA-3>
0

>  <PEOE_VSA-4>
11.9086

>  <PEOE_VSA-5>
40.7008

>  <PEOE_VSA-6>
0.136891

>  <PEOE_VSA_FHYD>
0.775211

>  <PEOE_VSA_FNEG>
0.470089

>  <PEOE_VSA_FPNEG>
0.136122

>  <PEOE_VSA_FPOL>
0.224789

>  <PEOE_VSA_FPOS>
0.529911

>  <PEOE_VSA_FPPOS>
0.0886666

>  <PEOE_VSA_HYD>
300.388

>  <PEOE_VSA_NEG>
182.155

>  <PEOE_VSA_PNEG>
52.7463

>  <PEOE_VSA_POL>
87.1039

>  <PEOE_VSA_POS>
205.336

>  <PEOE_VSA_PPOS>
34.3576

>  <PC+>
4.92

>  <PC->
-4.921

>  <Q_PC+>
4.92

>  <Q_PC->
-4.921

>  <Q_RPC+>
0.133333

>  <Q_RPC->
0.134119

>  <Q_VSA_FHYD>
0.604656

>  <Q_VSA_FNEG>
0.535941

>  <Q_VSA_FPNEG>
0.148253

>  <Q_VSA_FPOL>
0.395344

>  <Q_VSA_FPOS>
0.464059

>  <Q_VSA_FPPOS>
0.247091

>  <Q_VSA_HYD>
234.299

>  <Q_VSA_NEG>
207.673

>  <Q_VSA_PNEG>
57.4467

>  <Q_VSA_POL>
153.193

>  <Q_VSA_POS>
179.819

>  <Q_VSA_PPOS>
95.7459

>  <RPC+>
0.133333

>  <RPC->
0.134119

>  <lip_acc>
6

>  <lip_don>
1

>  <lip_druglike>
1

>  <lip_violation>
0

>  <opr_brigid>
22

>  <opr_leadlike>
1

>  <opr_nring>
4

>  <opr_nrot>
5

>  <opr_violation>
1

>  <E>
88.3369

>  <E_ang>
6.71477

>  <E_ele>
25.4077

>  <E_nb>
71.6261

>  <E_oop>
0.0703599

>  <E_sol>
-19.2884

>  <E_stb>
0.414481

>  <E_str>
5.60097

>  <E_strain>
0.00475938

>  <E_tor>
3.9102

>  <E_vdw>
46.2184

>  <E_rele>
0

>  <E_rnb>
-7.10543e-014

>  <E_rsol>
-7.10543e-014

>  <E_rvdw>
0

>  <Kier1>
22.2031

>  <Kier2>
9.6465

>  <Kier3>
4.76896

>  <KierA1>
16.8094

>  <KierA2>
7.22541

>  <KierA3>
3.54394

>  <KierFlex>
4.18809

>  <logS>
-5.41496

>  <MNDO_dipole>
4.17069

>  <MNDO_E>
-123111

>  <MNDO_Eele>
-868204

>  <MNDO_HF>
-50.0277

>  <MNDO_HOMO>
-9.242

>  <MNDO_IP>
9.242

>  <MNDO_LUMO>
-0.96943

>  <apol>
57.6085

>  <bpol>
28.5715

>  <mr>
11.1045

>  <dipole>
0.973302

>  <dipoleX>
0.503963

>  <dipoleY>
-0.258518

>  <dipoleZ>
-0.791522

>  <pmi>
13087.2

>  <pmiX>
11392.5

>  <pmiY>
779.842

>  <pmiZ>
914.908

>  <rgyr>
5.34386

>  <a_acc>
3

>  <a_acid>
0

>  <a_base>
0

>  <a_don>
1

>  <a_hyd>
20

>  <vsa_acc>
40.7008

>  <vsa_acid>
0

>  <vsa_base>
0

>  <vsa_don>
5.68258

>  <vsa_hyd>
292.289

>  <vsa_other>
34.3576

>  <vsa_pol>
46.3833

>  <PM3_dipole>
4.13528

>  <PM3_E>
-113235

>  <PM3_Eele>
-857272

>  <PM3_HF>
-66.48

>  <PM3_HOMO>
-9.15019

>  <PM3_IP>
9.15019

>  <PM3_LUMO>
-0.92087

>  <SlogP>
3.2368

>  <SlogP_VSA0>
0

>  <SlogP_VSA1>
22.4538

>  <SlogP_VSA2>
49.7688

>  <SlogP_VSA3>
73.7583

>  <SlogP_VSA4>
54.0956

>  <SlogP_VSA5>
3.0551

>  <SlogP_VSA6>
0

>  <SlogP_VSA7>
145.434

>  <SlogP_VSA8>
0

>  <SlogP_VSA9>
60.9142

>  <SMR>
10.9213

>  <SMR_VSA0>
71.5866

>  <SMR_VSA1>
21.2087

>  <SMR_VSA2>
28.9617

>  <SMR_VSA3>
6.37115

>  <SMR_VSA4>
4.7171

>  <SMR_VSA5>
140.717

>  <SMR_VSA6>
89.9635

>  <SMR_VSA7>
45.9541

>  <ASA>
660.898

>  <ASA+>
220.543

>  <ASA->
334.577

>  <ASA_H>
510.385

>  <ASA_P>
150.513

>  <CASA+>
1085.07

>  <CASA->
1646.45

>  <DASA>
114.034

>  <DCASA>
561.382

>  <FASA+>
0.333702

>  <FASA->
0.506246

>  <FASA_H>
0.77226

>  <FASA_P>
0.22774

>  <FCASA+>
1.64181

>  <FCASA->
2.49124

>  <VSA>
407.802

>  <TPSA>
73.48

>  <density>
0.885114

>  <vdw_area>
387.492

>  <vdw_vol>
517.772

>  <vsurf_A>
1.20577

>  <vsurf_CP>
0.138861

>  <vsurf_CW1>
2.68031

>  <vsurf_CW2>
2.19607

>  <vsurf_CW3>
1.46669

>  <vsurf_CW4>
0.593585

>  <vsurf_CW5>
0.206855

>  <vsurf_CW6>
0.0589168

>  <vsurf_CW7>
0.00366757

>  <vsurf_CW8>
0

>  <vsurf_D1>
942.75

>  <vsurf_D2>
554.125

>  <vsurf_D3>
407.25

>  <vsurf_D4>
340

>  <vsurf_D5>
287.625

>  <vsurf_D6>
235.125

>  <vsurf_D7>
140.25

>  <vsurf_D8>
85

>  <vsurf_DD12>
3.3541

>  <vsurf_DD13>
2.69258

>  <vsurf_DD23>
0.707107

>  <vsurf_DW12>
0.707107

>  <vsurf_DW13>
5.74456

>  <vsurf_DW23>
5.33854

>  <vsurf_EDmin1>
-2.76458

>  <vsurf_EDmin2>
-2.65902

>  <vsurf_EDmin3>
-2.64632

>  <vsurf_EWmin1>
-5.65508

>  <vsurf_EWmin2>
-5.43661

>  <vsurf_EWmin3>
-5.40564

>  <vsurf_G>
1.37111

>  <vsurf_HB1>
379.25

>  <vsurf_HB2>
441.5

>  <vsurf_HB3>
365.5

>  <vsurf_HB4>
120.125

>  <vsurf_HB5>
33.25

>  <vsurf_HB6>
8.25

>  <vsurf_HB7>
0.75

>  <vsurf_HB8>
0

>  <vsurf_HL1>
0.0957643

>  <vsurf_HL2>
0.0286765

>  <vsurf_ID1>
1.22903

>  <vsurf_ID2>
1.22477

>  <vsurf_ID3>
1.47833

>  <vsurf_ID4>
1.83619

>  <vsurf_ID5>
2.09202

>  <vsurf_ID6>
2.021

>  <vsurf_ID7>
1.09535

>  <vsurf_ID8>
0.581923

>  <vsurf_IW1>
0.729083

>  <vsurf_IW2>
0.484793

>  <vsurf_IW3>
0.753605

>  <vsurf_IW4>
1.26465

>  <vsurf_IW5>
1.79763

>  <vsurf_IW6>
2.63483

>  <vsurf_IW7>
3.69113

>  <vsurf_IW8>
0

>  <vsurf_R>
1.43746

>  <vsurf_S>
602.365

>  <vsurf_V>
865.875

>  <vsurf_W1>
1490.63

>  <vsurf_W2>
903.375

>  <vsurf_W3>
451.75

>  <vsurf_W4>
134.5

>  <vsurf_W5>
39

>  <vsurf_W6>
9.75

>  <vsurf_W7>
0.75

>  <vsurf_W8>
0

>  <vsurf_Wp1>
1111.38

>  <vsurf_Wp2>
461.875

>  <vsurf_Wp3>
86.25

>  <vsurf_Wp4>
14.375

>  <vsurf_Wp5>
5.75

>  <vsurf_Wp6>
1.5

>  <vsurf_Wp7>
0

>  <vsurf_Wp8>
0

>  <dens>
1.22169

>  <glob>
0.0628589

>  <std_dim1>
4.7328

>  <std_dim2>
1.34777

>  <std_dim3>
1.18659

>  <vol>
375.125

>  <logP(o/w)>
3.106

$$$$
D3.cdx
  MOE2008           3D

 46 49  0  0  0  0  0  0  0  0999 V2000
   -5.3750  -18.6280    1.0220 C   0  0  0  0  0  0  0  0  0  0  0  0
   -5.9080  -18.6400    1.9690 H   0  0  0  0  0  0  0  0  0  0  0  0
   -6.0670  -18.4420   -0.1710 C   0  0  0  0  0  0  0  0  0  0  0  0
   -7.1440  -18.3080   -0.1650 H   0  0  0  0  0  0  0  0  0  0  0  0
   -5.3830  -18.4280   -1.3840 C   0  0  0  0  0  0  0  0  0  0  0  0
   -3.9970  -18.6050   -1.3780 C   0  0  0  0  0  0  0  0  0  0  0  0
   -3.2670  -18.7920   -0.2000 C   0  0  0  0  0  0  0  0  0  0  0  0
   -3.9860  -18.8000    1.0160 C   0  0  0  0  0  0  0  0  0  0  0  0
   -3.1120  -18.6350   -2.4260 N   0  0  0  0  0  0  0  0  0  0  0  0
   -3.3730  -18.5300   -3.3990 H   0  0  0  0  0  0  0  0  0  0  0  0
   -1.8420  -18.8270   -1.9580 C   0  0  0  0  0  0  0  0  0  0  0  0
   -1.0130  -18.8790   -2.6540 H   0  0  0  0  0  0  0  0  0  0  0  0
   -1.8880  -18.9310   -0.5770 C   0  0  0  0  0  0  0  0  0  0  0  0
   -0.7250  -19.1310    0.2810 C   0  0  0  0  0  0  0  0  0  0  0  0
    0.6580  -19.2260   -0.3380 C   0  0  0  0  0  0  0  0  0  0  0  0
    1.4710  -18.1000   -0.2280 N   0  0  0  0  0  0  0  0  0  0  0  0
    2.8280  -18.1440   -0.7710 C   0  0  0  0  0  0  0  0  0  0  0  0
    3.1880  -19.1780   -0.8040 H   0  0  0  0  0  0  0  0  0  0  0  0
    2.7650  -17.7840   -1.8050 H   0  0  0  0  0  0  0  0  0  0  0  0
    3.7970  -17.2730    0.0340 C   0  0  0  0  0  0  0  0  0  0  0  0
    4.7890  -17.2930   -0.4280 H   0  0  0  0  0  0  0  0  0  0  0  0
    3.8830  -17.6680    1.0520 H   0  0  0  0  0  0  0  0  0  0  0  0
    3.3330  -15.8810    0.1530 N   0  0  0  0  0  0  0  0  0  0  0  0
    1.8960  -15.6490   -0.0130 C   0  0  0  0  0  0  0  0  0  0  0  0
    1.5930  -14.7560    0.5450 H   0  0  0  0  0  0  0  0  0  0  0  0
    1.7340  -15.4410   -1.0780 H   0  0  0  0  0  0  0  0  0  0  0  0
    1.0520  -16.8500    0.4210 C   0  0  0  0  0  0  0  0  0  0  0  0
   -0.0050  -16.6580    0.2090 H   0  0  0  0  0  0  0  0  0  0  0  0
    1.1530  -17.0100    1.5010 H   0  0  0  0  0  0  0  0  0  0  0  0
    4.1590  -14.7810    0.3790 C   0  0  0  0  0  0  0  0  0  0  0  0
    5.5830  -15.0170    0.7060 C   0  0  0  0  0  0  0  0  0  0  0  0
    5.9410  -15.7450    1.8450 C   0  0  0  0  0  0  0  0  0  0  0  0
    5.1800  -16.1550    2.5040 H   0  0  0  0  0  0  0  0  0  0  0  0
    7.2900  -15.9340    2.1450 C   0  0  0  0  0  0  0  0  0  0  0  0
    7.5760  -16.5040    3.0260 H   0  0  0  0  0  0  0  0  0  0  0  0
    8.2730  -15.3840    1.3210 C   0  0  0  0  0  0  0  0  0  0  0  0
    9.3230  -15.5290    1.5590 H   0  0  0  0  0  0  0  0  0  0  0  0
    7.9120  -14.6350    0.1980 C   0  0  0  0  0  0  0  0  0  0  0  0
    8.6810  -14.1980   -0.4330 H   0  0  0  0  0  0  0  0  0  0  0  0
    6.5650  -14.4440   -0.1090 C   0  0  0  0  0  0  0  0  0  0  0  0
    6.2840  -13.8520   -0.9760 H   0  0  0  0  0  0  0  0  0  0  0  0
   -0.7830  -19.2070    1.5040 O   0  0  0  0  0  0  0  0  0  0  0  0
    0.9630  -20.2740   -0.8970 O   0  0  0  0  0  0  0  0  0  0  0  0
    3.7810  -13.6150    0.3160 O   0  0  0  0  0  0  0  0  0  0  0  0
   -3.3730  -18.9710    2.1960 F   0  0  0  0  0  0  0  0  0  0  0  0
   -6.0590  -18.2460   -2.5260 F   0  0  0  0  0  0  0  0  0  0  0  0
  1  2  1  0  0  0  0
  1  3  1  0  0  0  0
  1  8  2  0  0  0  0
  3  4  1  0  0  0  0
  3  5  2  0  0  0  0
  5  6  1  0  0  0  0
  5 46  1  0  0  0  0
  6  7  2  0  0  0  0
  6  9  1  0  0  0  0
  7  8  1  0  0  0  0
  7 13  1  0  0  0  0
  8 45  1  0  0  0  0
  9 10  1  0  0  0  0
  9 11  1  0  0  0  0
 11 12  1  0  0  0  0
 11 13  2  0  0  0  0
 13 14  1  0  0  0  0
 14 15  1  0  0  0  0
 14 42  2  0  0  0  0
 15 16  1  0  0  0  0
 15 43  2  0  0  0  0
 16 17  1  0  0  0  0
 16 27  1  0  0  0  0
 17 18  1  0  0  0  0
 17 19  1  0  0  0  0
 17 20  1  0  0  0  0
 20 21  1  0  0  0  0
 20 22  1  0  0  0  0
 20 23  1  0  0  0  0
 23 24  1  0  0  0  0
 23 30  1  0  0  0  0
 24 25  1  0  0  0  0
 24 26  1  0  0  0  0
 24 27  1  0  0  0  0
 27 28  1  0  0  0  0
 27 29  1  0  0  0  0
 30 31  1  0  0  0  0
 30 44  2  0  0  0  0
 31 32  1  0  0  0  0
 31 40  2  0  0  0  0
 32 33  1  0  0  0  0
 32 34  2  0  0  0  0
 34 35  1  0  0  0  0
 34 36  1  0  0  0  0
 36 37  1  0  0  0  0
 36 38  2  0  0  0  0
 38 39  1  0  0  0  0
 38 40  1  0  0  0  0
 40 41  1  0  0  0  0
M  END
>  <Activity>
9.4559

>  <AM1_dipole>
3.82236

>  <AM1_E>
-126204

>  <AM1_Eele>
-889160

>  <AM1_HF>
-64.6066

>  <AM1_HOMO>
-8.8986

>  <AM1_IP>
8.8986

>  <AM1_LUMO>
-0.79128

>  <diameter>
15

>  <petitjean>
0.466667

>  <petitjeanSC>
0.875

>  <radius>
8

>  <VDistEq>
3.69068

>  <VDistMa>
9.39588

>  <weinerPath>
2420

>  <weinerPol>
50

>  <BCUT_PEOE_0>
-2.71188

>  <BCUT_PEOE_1>
-0.639878

>  <BCUT_PEOE_2>
0.627777

>  <BCUT_PEOE_3>
2.65031

>  <BCUT_SLOGP_0>
-2.86001

>  <BCUT_SLOGP_1>
-0.53808

>  <BCUT_SLOGP_2>
0.805915

>  <BCUT_SLOGP_3>
2.5033

>  <BCUT_SMR_0>
-2.43203

>  <BCUT_SMR_1>
-0.433304

>  <BCUT_SMR_2>
0.826309

>  <BCUT_SMR_3>
2.92023

>  <GCUT_PEOE_0>
-0.853396

>  <GCUT_PEOE_1>
-0.403744

>  <GCUT_PEOE_2>
0.080099

>  <GCUT_PEOE_3>
2.65464

>  <GCUT_SLOGP_0>
-0.976489

>  <GCUT_SLOGP_1>
-0.338116

>  <GCUT_SLOGP_2>
0.198357

>  <GCUT_SLOGP_3>
2.62793

>  <GCUT_SMR_0>
-0.508913

>  <GCUT_SMR_1>
-0.216057

>  <GCUT_SMR_2>
0.193051

>  <GCUT_SMR_3>
2.91993

>  <a_aro>
15

>  <a_count>
46

>  <a_IC>
80.8485

>  <a_ICM>
1.75758

>  <a_nH>
17

>  <b_1rotN>
5

>  <b_1rotR>
0.15625

>  <b_ar>
16

>  <b_count>
49

>  <b_double>
3

>  <b_rotN>
5

>  <b_rotR>
0.15625

>  <b_single>
30

>  <b_triple>
0

>  <chi0v>
15.3223

>  <chi0v_C>
11.9472

>  <chi1v>
9.10118

>  <chi1v_C>
5.86004

>  <chiral>
0

>  <chiral_u>
0

>  <nmol>
1

>  <reactive>
0

>  <rings>
4

>  <Weight>
397.381

>  <a_heavy>
29

>  <a_nB>
0

>  <a_nBr>
0

>  <a_nC>
21

>  <a_nCl>
0

>  <a_nF>
2

>  <a_nI>
0

>  <a_nN>
3

>  <a_nO>
3

>  <a_nP>
0

>  <a_nS>
0

>  <b_heavy>
32

>  <chi0>
20.5432

>  <chi0_C>
13.6814

>  <chi1>
13.9692

>  <chi1_C>
7.87457

>  <FCharge>
0

>  <VAdjEq>
0.388286

>  <VAdjMa>
6

>  <zagreb>
156

>  <balabanJ>
1.30569

>  <PEOE_PC+>
2.5729

>  <PEOE_PC->
-2.5729

>  <PEOE_RPC+>
0.114696

>  <PEOE_RPC->
0.13901

>  <PEOE_VSA+0>
73.9323

>  <PEOE_VSA+1>
77.1543

>  <PEOE_VSA+2>
18.0417

>  <PEOE_VSA+3>
8.61901

>  <PEOE_VSA+4>
0

>  <PEOE_VSA+5>
34.3576

>  <PEOE_VSA+6>
0

>  <PEOE_VSA-0>
49.0196

>  <PEOE_VSA-1>
36.7647

>  <PEOE_VSA-2>
0

>  <PEOE_VSA-3>
0

>  <PEOE_VSA-4>
23.8173

>  <PEOE_VSA-5>
40.7008

>  <PEOE_VSA-6>
0.136891

>  <PEOE_VSA_FHYD>
0.726895

>  <PEOE_VSA_FNEG>
0.414954

>  <PEOE_VSA_FPNEG>
0.178337

>  <PEOE_VSA_FPOL>
0.273105

>  <PEOE_VSA_FPOS>
0.585046

>  <PEOE_VSA_FPPOS>
0.094768

>  <PEOE_VSA_HYD>
263.532

>  <PEOE_VSA_NEG>
150.439

>  <PEOE_VSA_PNEG>
64.6549

>  <PEOE_VSA_POL>
99.0125

>  <PEOE_VSA_POS>
212.105

>  <PEOE_VSA_PPOS>
34.3576

>  <PC+>
4.999

>  <PC->
-5

>  <Q_PC+>
4.999

>  <Q_PC->
-5

>  <Q_RPC+>
0.131226

>  <Q_RPC->
0.132

>  <Q_VSA_FHYD>
0.577451

>  <Q_VSA_FNEG>
0.485338

>  <Q_VSA_FPNEG>
0.158454

>  <Q_VSA_FPOL>
0.422549

>  <Q_VSA_FPOS>
0.514662

>  <Q_VSA_FPPOS>
0.264094

>  <Q_VSA_HYD>
209.352

>  <Q_VSA_NEG>
175.956

>  <Q_VSA_PNEG>
57.4467

>  <Q_VSA_POL>
153.193

>  <Q_VSA_POS>
186.588

>  <Q_VSA_PPOS>
95.7459

>  <RPC+>
0.131226

>  <RPC->
0.132

>  <lip_acc>
6

>  <lip_don>
1

>  <lip_druglike>
1

>  <lip_violation>
0

>  <opr_brigid>
22

>  <opr_leadlike>
1

>  <opr_nring>
4

>  <opr_nrot>
5

>  <opr_violation>
0

>  <E>
94.0157

>  <E_ang>
6.97325

>  <E_ele>
31.9072

>  <E_nb>
77.0473

>  <E_oop>
0.0546561

>  <E_sol>
-18.6813

>  <E_stb>
0.445099

>  <E_str>
5.68101

>  <E_strain>
0.00537421

>  <E_tor>
3.81433

>  <E_vdw>
45.1401

>  <E_rele>
0

>  <E_rnb>
0

>  <E_rsol>
0

>  <E_rvdw>
0

>  <Kier1>
22.2031

>  <Kier2>
9.6465

>  <Kier3>
4.62109

>  <KierA1>
15.2245

>  <KierA2>
6.51766

>  <KierA3>
3.08834

>  <KierFlex>
3.42166

>  <logS>
-4.61955

>  <MNDO_dipole>
2.29265

>  <MNDO_E>
-126148

>  <MNDO_Eele>
-885723

>  <MNDO_HF>
-106.054

>  <MNDO_HOMO>
-9.0369

>  <MNDO_IP>
9.0369

>  <MNDO_LUMO>
-0.94279

>  <apol>
55.1155

>  <bpol>
28.4845

>  <mr>
10.3961

>  <dipole>
0.737251

>  <dipoleX>
0.216398

>  <dipoleY>
-0.00100654

>  <dipoleZ>
-0.704777

>  <pmi>
9592.43

>  <pmiX>
7612.87

>  <pmiY>
1323.07

>  <pmiZ>
656.482

>  <rgyr>
4.91316

>  <a_acc>
3

>  <a_acid>
0

>  <a_base>
0

>  <a_don>
1

>  <a_hyd>
20

>  <vsa_acc>
40.7008

>  <vsa_acid>
0

>  <vsa_base>
0

>  <vsa_don>
5.68258

>  <vsa_hyd>
267.341

>  <vsa_other>
34.3576

>  <vsa_pol>
46.3833

>  <PM3_dipole>
3.26196

>  <PM3_E>
-115236

>  <PM3_Eele>
-870927

>  <PM3_HF>
-115.452

>  <PM3_HOMO>
-9.01707

>  <PM3_IP>
9.01707

>  <PM3_LUMO>
-0.89005

>  <SlogP>
2.6134

>  <SlogP_VSA0>
0

>  <SlogP_VSA1>
22.4538

>  <SlogP_VSA2>
58.8898

>  <SlogP_VSA3>
73.7583

>  <SlogP_VSA4>
54.0956

>  <SlogP_VSA5>
0

>  <SlogP_VSA6>
0

>  <SlogP_VSA7>
145.434

>  <SlogP_VSA8>
0

>  <SlogP_VSA9>
29.9202

>  <SMR>
10.1471

>  <SMR_VSA0>
71.5866

>  <SMR_VSA1>
36.1689

>  <SMR_VSA2>
35.0276

>  <SMR_VSA3>
6.37115

>  <SMR_VSA4>
4.7171

>  <SMR_VSA5>
140.717

>  <SMR_VSA6>
89.9635

>  <SMR_VSA7>
0

>  <ASA>
623.431

>  <ASA+>
242.471

>  <ASA->
272.957

>  <ASA_H>
472.385

>  <ASA_P>
151.046

>  <CASA+>
1212.11

>  <CASA->
1364.78

>  <DASA>
30.4859

>  <DCASA>
152.672

>  <FASA+>
0.38893

>  <FASA->
0.43783

>  <FASA_H>
0.757719

>  <FASA_P>
0.242282

>  <FCASA+>
1.94426

>  <FCASA->
2.18915

>  <VSA>
382.839

>  <TPSA>
73.48

>  <density>
0.807806

>  <vdw_area>
362.544

>  <vdw_vol>
491.926

>  <vsurf_A>
2.59711

>  <vsurf_CP>
0.0926087

>  <vsurf_CW1>
2.69152

>  <vsurf_CW2>
2.25155

>  <vsurf_CW3>
1.54227

>  <vsurf_CW4>
0.709176

>  <vsurf_CW5>
0.284948

>  <vsurf_CW6>
0.0831838

>  <vsurf_CW7>
0.00506379

>  <vsurf_CW8>
0

>  <vsurf_D1>
811.5

>  <vsurf_D2>
466

>  <vsurf_D3>
344

>  <vsurf_D4>
286.75

>  <vsurf_D5>
245.375

>  <vsurf_D6>
197.625

>  <vsurf_D7>
115.625

>  <vsurf_D8>
64.75

>  <vsurf_DD12>
3.53553

>  <vsurf_DD13>
0.5

>  <vsurf_DD23>
3.90512

>  <vsurf_DW12>
0.5

>  <vsurf_DW13>
5.87367

>  <vsurf_DW23>
5.67891

>  <vsurf_EDmin1>
-2.64249

>  <vsurf_EDmin2>
-2.63604

>  <vsurf_EDmin3>
-2.63176

>  <vsurf_EWmin1>
-5.57384

>  <vsurf_EWmin2>
-5.35245

>  <vsurf_EWmin3>
-5.33455

>  <vsurf_G>
1.35604

>  <vsurf_HB1>
362.375

>  <vsurf_HB2>
451.375

>  <vsurf_HB3>
387.75

>  <vsurf_HB4>
140.875

>  <vsurf_HB5>
45.25

>  <vsurf_HB6>
11.875

>  <vsurf_HB7>
1

>  <vsurf_HB8>
0

>  <vsurf_HL1>
0.148619

>  <vsurf_HL2>
0.0462075

>  <vsurf_ID1>
1.39371

>  <vsurf_ID2>
1.45999

>  <vsurf_ID3>
1.71314

>  <vsurf_ID4>
2.08435

>  <vsurf_ID5>
2.44764

>  <vsurf_ID6>
2.29731

>  <vsurf_ID7>
1.42176

>  <vsurf_ID8>
1.06593

>  <vsurf_IW1>
0.192397

>  <vsurf_IW2>
0.833895

>  <vsurf_IW3>
1.28199

>  <vsurf_IW4>
1.16774

>  <vsurf_IW5>
1.01014

>  <vsurf_IW6>
0.91491

>  <vsurf_IW7>
3.52154

>  <vsurf_IW8>
0

>  <vsurf_R>
1.42461

>  <vsurf_S>
572.351

>  <vsurf_V>
815.375

>  <vsurf_W1>
1416.13

>  <vsurf_W2>
891.125

>  <vsurf_W3>
471.5

>  <vsurf_W4>
156.375

>  <vsurf_W5>
51.125

>  <vsurf_W6>
13.25

>  <vsurf_W7>
1

>  <vsurf_W8>
0

>  <vsurf_Wp1>
1053.75

>  <vsurf_Wp2>
439.75

>  <vsurf_Wp3>
83.75

>  <vsurf_Wp4>
15.5

>  <vsurf_Wp5>
5.875

>  <vsurf_Wp6>
1.375

>  <vsurf_Wp7>
0

>  <vsurf_Wp8>
0

>  <dens>
1.13944

>  <glob>
0.0610995

>  <std_dim1>
4.7433

>  <std_dim2>
1.3162

>  <std_dim3>
1.17246

>  <vol>
348.75

>  <logP(o/w)>
2.385

$$$$
D4.cdx
  MOE2008           3D

 54 57  0  0  0  0  0  0  0  0999 V2000
   -4.6340   16.6020   -0.3510 C   0  0  0  0  0  0  0  0  0  0  0  0
   -5.4460   17.3070   -0.5130 H   0  0  0  0  0  0  0  0  0  0  0  0
   -4.9030   15.3620    0.2260 C   0  0  0  0  0  0  0  0  0  0  0  0
   -5.9310   15.1530    0.5060 H   0  0  0  0  0  0  0  0  0  0  0  0
   -3.8880   14.4190    0.4270 C   0  0  0  0  0  0  0  0  0  0  0  0
   -2.5970   14.7860    0.0120 C   0  0  0  0  0  0  0  0  0  0  0  0
   -2.2730   16.0190   -0.5630 C   0  0  0  0  0  0  0  0  0  0  0  0
   -3.3290   16.9470   -0.7250 C   0  0  0  0  0  0  0  0  0  0  0  0
   -1.4420   14.0440    0.0720 N   0  0  0  0  0  0  0  0  0  0  0  0
   -1.3980   13.1060    0.4480 H   0  0  0  0  0  0  0  0  0  0  0  0
   -0.3970   14.7530   -0.4420 C   0  0  0  0  0  0  0  0  0  0  0  0
    0.5910   14.3100   -0.4730 H   0  0  0  0  0  0  0  0  0  0  0  0
   -0.8610   15.9930   -0.8490 C   0  0  0  0  0  0  0  0  0  0  0  0
   -0.0070   17.0240   -1.4320 C   0  0  0  0  0  0  0  0  0  0  0  0
    1.4460   16.7020   -1.7190 C   0  0  0  0  0  0  0  0  0  0  0  0
    2.3690   17.0220   -0.7280 N   0  0  0  0  0  0  0  0  0  0  0  0
    3.7810   16.6920   -0.9190 C   0  0  0  0  0  0  0  0  0  0  0  0
    4.0210   15.9030   -0.1950 H   0  0  0  0  0  0  0  0  0  0  0  0
    3.9600   16.2860   -1.9200 H   0  0  0  0  0  0  0  0  0  0  0  0
    4.6850   17.9100   -0.6800 C   0  0  0  0  0  0  0  0  0  0  0  0
    4.5340   18.6540   -1.4710 H   0  0  0  0  0  0  0  0  0  0  0  0
    5.7270   17.5840   -0.7120 H   0  0  0  0  0  0  0  0  0  0  0  0
    4.3600   18.5710    0.5950 N   0  0  0  0  0  0  0  0  0  0  0  0
    2.9420   18.9010    0.7730 C   0  0  0  0  0  0  0  0  0  0  0  0
    2.7530   19.3250    1.7640 H   0  0  0  0  0  0  0  0  0  0  0  0
    2.7040   19.6750    0.0330 H   0  0  0  0  0  0  0  0  0  0  0  0
    2.0510   17.6760    0.5500 C   0  0  0  0  0  0  0  0  0  0  0  0
    1.0010   17.9690    0.6050 H   0  0  0  0  0  0  0  0  0  0  0  0
    2.2300   16.9320    1.3360 H   0  0  0  0  0  0  0  0  0  0  0  0
    5.2610   18.8840    1.6090 C   0  0  0  0  0  0  0  0  0  0  0  0
    6.7100   18.7420    1.3490 C   0  0  0  0  0  0  0  0  0  0  0  0
    7.4650   17.9020    2.1730 C   0  0  0  0  0  0  0  0  0  0  0  0
    6.9880   17.3460    2.9750 H   0  0  0  0  0  0  0  0  0  0  0  0
    8.8380   17.7820    1.9590 C   0  0  0  0  0  0  0  0  0  0  0  0
    9.4330   17.1280    2.5920 H   0  0  0  0  0  0  0  0  0  0  0  0
    9.4520   18.5090    0.9370 C   0  0  0  0  0  0  0  0  0  0  0  0
   10.5230   18.4160    0.7750 H   0  0  0  0  0  0  0  0  0  0  0  0
    8.6980   19.3650    0.1310 C   0  0  0  0  0  0  0  0  0  0  0  0
    9.1840   19.9380   -0.6550 H   0  0  0  0  0  0  0  0  0  0  0  0
    7.3250   19.4910    0.3390 C   0  0  0  0  0  0  0  0  0  0  0  0
    6.7440   20.1710   -0.2780 H   0  0  0  0  0  0  0  0  0  0  0  0
   -0.3660   18.1690   -1.6880 O   0  0  0  0  0  0  0  0  0  0  0  0
    1.7040   16.1620   -2.7890 O   0  0  0  0  0  0  0  0  0  0  0  0
    4.9320   19.2760    2.7250 O   0  0  0  0  0  0  0  0  0  0  0  0
   -3.1400   18.1730   -1.3250 O   0  0  0  0  0  0  0  0  0  0  0  0
   -4.0450   13.1800    0.9810 O   0  0  0  0  0  0  0  0  0  0  0  0
   -2.9570   19.1780   -0.3280 C   0  0  0  0  0  0  0  0  0  0  0  0
   -2.6690   20.1040   -0.8350 H   0  0  0  0  0  0  0  0  0  0  0  0
   -2.1590   18.9140    0.3750 H   0  0  0  0  0  0  0  0  0  0  0  0
   -3.8910   19.3640    0.2130 H   0  0  0  0  0  0  0  0  0  0  0  0
   -5.3650   12.7950    1.3410 C   0  0  0  0  0  0  0  0  0  0  0  0
   -5.3190   11.7790    1.7440 H   0  0  0  0  0  0  0  0  0  0  0  0
   -6.0240   12.7760    0.4660 H   0  0  0  0  0  0  0  0  0  0  0  0
   -5.7660   13.4460    2.1250 H   0  0  0  0  0  0  0  0  0  0  0  0
  1  2  1  0  0  0  0
  1  3  1  0  0  0  0
  1  8  2  0  0  0  0
  3  4  1  0  0  0  0
  3  5  2  0  0  0  0
  5  6  1  0  0  0  0
  5 46  1  0  0  0  0
  6  7  2  0  0  0  0
  6  9  1  0  0  0  0
  7  8  1  0  0  0  0
  7 13  1  0  0  0  0
  8 45  1  0  0  0  0
  9 10  1  0  0  0  0
  9 11  1  0  0  0  0
 11 12  1  0  0  0  0
 11 13  2  0  0  0  0
 13 14  1  0  0  0  0
 14 15  1  0  0  0  0
 14 42  2  0  0  0  0
 15 16  1  0  0  0  0
 15 43  2  0  0  0  0
 16 17  1  0  0  0  0
 16 27  1  0  0  0  0
 17 18  1  0  0  0  0
 17 19  1  0  0  0  0
 17 20  1  0  0  0  0
 20 21  1  0  0  0  0
 20 22  1  0  0  0  0
 20 23  1  0  0  0  0
 23 24  1  0  0  0  0
 23 30  1  0  0  0  0
 24 25  1  0  0  0  0
 24 26  1  0  0  0  0
 24 27  1  0  0  0  0
 27 28  1  0  0  0  0
 27 29  1  0  0  0  0
 30 31  1  0  0  0  0
 30 44  2  0  0  0  0
 31 32  1  0  0  0  0
 31 40  2  0  0  0  0
 32 33  1  0  0  0  0
 32 34  2  0  0  0  0
 34 35  1  0  0  0  0
 34 36  1  0  0  0  0
 36 37  1  0  0  0  0
 36 38  2  0  0  0  0
 38 39  1  0  0  0  0
 38 40  1  0  0  0  0
 40 41  1  0  0  0  0
 45 47  1  0  0  0  0
 46 51  1  0  0  0  0
 47 48  1  0  0  0  0
 47 49  1  0  0  0  0
 47 50  1  0  0  0  0
 51 52  1  0  0  0  0
 51 53  1  0  0  0  0
 51 54  1  0  0  0  0
M  END
>  <Activity>
9.6382

>  <AM1_dipole>
5.12014

>  <AM1_E>
-126408

>  <AM1_Eele>
-999081

>  <AM1_HF>
-68.223

>  <AM1_HOMO>
-8.52073

>  <AM1_IP>
8.52073

>  <AM1_LUMO>
-0.45831

>  <diameter>
16

>  <petitjean>
0.5

>  <petitjeanSC>
1

>  <radius>
8

>  <VDistEq>
3.75108

>  <VDistMa>
9.59505

>  <weinerPath>
2887

>  <weinerPol>
54

>  <BCUT_PEOE_0>
-2.71188

>  <BCUT_PEOE_1>
-0.578019

>  <BCUT_PEOE_2>
0.580081

>  <BCUT_PEOE_3>
2.65031

>  <BCUT_SLOGP_0>
-2.86001

>  <BCUT_SLOGP_1>
-0.497643

>  <BCUT_SLOGP_2>
0.660627

>  <BCUT_SLOGP_3>
2.50507

>  <BCUT_SMR_0>
-2.43203

>  <BCUT_SMR_1>
-0.3991

>  <BCUT_SMR_2>
0.735156

>  <BCUT_SMR_3>
2.9203

>  <GCUT_PEOE_0>
-0.854471

>  <GCUT_PEOE_1>
-0.404278

>  <GCUT_PEOE_2>
0.0642813

>  <GCUT_PEOE_3>
2.70853

>  <GCUT_SLOGP_0>
-0.976525

>  <GCUT_SLOGP_1>
-0.312603

>  <GCUT_SLOGP_2>
0.131825

>  <GCUT_SLOGP_3>
2.72336

>  <GCUT_SMR_0>
-0.508956

>  <GCUT_SMR_1>
-0.200234

>  <GCUT_SMR_2>
0.168974

>  <GCUT_SMR_3>
2.98143

>  <a_aro>
15

>  <a_count>
54

>  <a_IC>
86.3155

>  <a_ICM>
1.59844

>  <a_nH>
23

>  <b_1rotN>
7

>  <b_1rotR>
0.205882

>  <b_ar>
16

>  <b_count>
57

>  <b_double>
3

>  <b_rotN>
7

>  <b_rotR>
0.205882

>  <b_single>
38

>  <b_triple>
0

>  <chi0v>
17.3829

>  <chi0v_C>
13.9472

>  <chi1v>
9.94796

>  <chi1v_C>
5.86004

>  <chiral>
0

>  <chiral_u>
0

>  <nmol>
1

>  <reactive>
0

>  <rings>
4

>  <Weight>
421.453

>  <a_heavy>
31

>  <a_nB>
0

>  <a_nBr>
0

>  <a_nC>
23

>  <a_nCl>
0

>  <a_nF>
0

>  <a_nI>
0

>  <a_nN>
3

>  <a_nO>
5

>  <a_nP>
0

>  <a_nS>
0

>  <b_heavy>
34

>  <chi0>
21.9575

>  <chi0_C>
15.6814

>  <chi1>
15.0452

>  <chi1_C>
7.87457

>  <FCharge>
0

>  <VAdjEq>
0.368752

>  <VAdjMa>
6.08746

>  <zagreb>
164

>  <balabanJ>
1.32743

>  <PEOE_PC+>
2.86918

>  <PEOE_PC->
-2.86918

>  <PEOE_RPC+>
0.102852

>  <PEOE_RPC->
0.124736

>  <PEOE_VSA+0>
123.928

>  <PEOE_VSA+1>
119.664

>  <PEOE_VSA+2>
0

>  <PEOE_VSA+3>
8.61901

>  <PEOE_VSA+4>
0

>  <PEOE_VSA+5>
34.3576

>  <PEOE_VSA+6>
0

>  <PEOE_VSA-0>
49.0196

>  <PEOE_VSA-1>
36.7647

>  <PEOE_VSA-2>
0

>  <PEOE_VSA-3>
0

>  <PEOE_VSA-4>
0

>  <PEOE_VSA-5>
40.7008

>  <PEOE_VSA-6>
5.1444

>  <PEOE_VSA_FHYD>
0.808218

>  <PEOE_VSA_FNEG>
0.314755

>  <PEOE_VSA_FPNEG>
0.109626

>  <PEOE_VSA_FPOL>
0.191782

>  <PEOE_VSA_FPOS>
0.685246

>  <PEOE_VSA_FPPOS>
0.0821564

>  <PEOE_VSA_HYD>
337.995

>  <PEOE_VSA_NEG>
131.629

>  <PEOE_VSA_PNEG>
45.8452

>  <PEOE_VSA_POL>
80.2027

>  <PEOE_VSA_POS>
286.568

>  <PEOE_VSA_PPOS>
34.3576

>  <PC+>
5.343

>  <PC->
-5.346

>  <Q_PC+>
5.343

>  <Q_PC->
-5.346

>  <Q_RPC+>
0.122777

>  <Q_RPC->
0.123457

>  <Q_VSA_FHYD>
0.50216

>  <Q_VSA_FNEG>
0.375771

>  <Q_VSA_FPNEG>
0.149341

>  <Q_VSA_FPOL>
0.49784

>  <Q_VSA_FPOS>
0.624229

>  <Q_VSA_FPPOS>
0.348499

>  <Q_VSA_HYD>
210.002

>  <Q_VSA_NEG>
157.147

>  <Q_VSA_PNEG>
62.4542

>  <Q_VSA_POL>
208.195

>  <Q_VSA_POS>
261.051

>  <Q_VSA_PPOS>
145.741

>  <RPC+>
0.122777

>  <RPC->
0.123457

>  <lip_acc>
8

>  <lip_don>
1

>  <lip_druglike>
1

>  <lip_violation>
0

>  <opr_brigid>
22

>  <opr_leadlike>
1

>  <opr_nring>
4

>  <opr_nrot>
7

>  <opr_violation>
0

>  <E>
115.346

>  <E_ang>
16.4378

>  <E_ele>
27.6701

>  <E_nb>
82.7187

>  <E_oop>
0.0839176

>  <E_sol>
-19.8752

>  <E_stb>
0.325486

>  <E_str>
6.29182

>  <E_strain>
0.00440867

>  <E_tor>
9.48789

>  <E_vdw>
55.0486

>  <E_rele>
0

>  <E_rnb>
1.42109e-014

>  <E_rsol>
1.42109e-014

>  <E_rvdw>
0

>  <Kier1>
24.1349

>  <Kier2>
10.9505

>  <Kier3>
5.08651

>  <KierA1>
17.2153

>  <KierA2>
7.71604

>  <KierA3>
3.55208

>  <KierFlex>
4.28497

>  <logS>
-4.13035

>  <MNDO_dipole>
5.03039

>  <MNDO_E>
-126749

>  <MNDO_Eele>
-986808

>  <MNDO_HF>
-90.6801

>  <MNDO_HOMO>
-8.45914

>  <MNDO_IP>
8.45914

>  <MNDO_LUMO>
-0.49826

>  <apol>
63.1262

>  <bpol>
36.4698

>  <mr>
11.5668

>  <dipole>
1.01692

>  <dipoleX>
0.198533

>  <dipoleY>
-0.787463

>  <dipoleZ>
0.61205

>  <pmi>
10615.1

>  <pmiX>
8405.92

>  <pmiY>
1524.29

>  <pmiZ>
684.85

>  <rgyr>
5.01865

>  <a_acc>
5

>  <a_acid>
0

>  <a_base>
0

>  <a_don>
1

>  <a_hyd>
20

>  <vsa_acc>
45.7083

>  <vsa_acid>
0

>  <vsa_base>
0

>  <vsa_don>
5.68258

>  <vsa_hyd>
313.716

>  <vsa_other>
34.3576

>  <vsa_pol>
51.3909

>  <PM3_dipole>
5.06827

>  <PM3_E>
-116066

>  <PM3_Eele>
-984351

>  <PM3_HF>
-104.567

>  <PM3_HOMO>
-8.43599

>  <PM3_IP>
8.43599

>  <PM3_LUMO>
-0.47569

>  <SlogP>
2.3524

>  <SlogP_VSA0>
21.9998

>  <SlogP_VSA1>
22.4538

>  <SlogP_VSA2>
40.6477

>  <SlogP_VSA3>
73.7583

>  <SlogP_VSA4>
54.0956

>  <SlogP_VSA5>
70.7677

>  <SlogP_VSA6>
0

>  <SlogP_VSA7>
145.434

>  <SlogP_VSA8>
0

>  <SlogP_VSA9>
10.4869

>  <SMR>
11.4659

>  <SMR_VSA0>
71.5866

>  <SMR_VSA1>
28.2484

>  <SMR_VSA2>
16.7855

>  <SMR_VSA3>
16.858

>  <SMR_VSA4>
4.7171

>  <SMR_VSA5>
140.717

>  <SMR_VSA6>
89.9635

>  <SMR_VSA7>
70.7677

>  <ASA>
690.262

>  <ASA+>
268.582

>  <ASA->
218.867

>  <ASA_H>
480.055

>  <ASA_P>
210.207

>  <CASA+>
1435.03

>  <CASA->
1170.06

>  <DASA>
49.7153

>  <DCASA>
264.972

>  <FASA+>
0.389101

>  <FASA->
0.317078

>  <FASA_H>
0.695468

>  <FASA_P>
0.304532

>  <FCASA+>
2.07897

>  <FCASA->
1.6951

>  <VSA>
436.078

>  <TPSA>
91.94

>  <density>
0.75825

>  <vdw_area>
418.197

>  <vdw_vol>
555.823

>  <vsurf_A>
1.70889

>  <vsurf_CP>
0.111177

>  <vsurf_CW1>
2.59746

>  <vsurf_CW2>
1.9597

>  <vsurf_CW3>
1.1862

>  <vsurf_CW4>
0.54621

>  <vsurf_CW5>
0.270209

>  <vsurf_CW6>
0.0950631

>  <vsurf_CW7>
0.0173207

>  <vsurf_CW8>
0.00223027

>  <vsurf_D1>
958.25

>  <vsurf_D2>
570.125

>  <vsurf_D3>
436.25

>  <vsurf_D4>
377.875

>  <vsurf_D5>
334.25

>  <vsurf_D6>
258.5

>  <vsurf_D7>
153.625

>  <vsurf_D8>
84.25

>  <vsurf_DD12>
0.5

>  <vsurf_DD13>
0.707107

>  <vsurf_DD23>
0.5

>  <vsurf_DW12>
0.5

>  <vsurf_DW13>
0.5

>  <vsurf_DW23>
1

>  <vsurf_EDmin1>
-2.75356

>  <vsurf_EDmin2>
-2.74966

>  <vsurf_EDmin3>
-2.70365

>  <vsurf_EWmin1>
-6.40513

>  <vsurf_EWmin2>
-6.15208

>  <vsurf_EWmin3>
-6.14871

>  <vsurf_G>
1.37214

>  <vsurf_HB1>
312.25

>  <vsurf_HB2>
354.5

>  <vsurf_HB3>
315.875

>  <vsurf_HB4>
130.875

>  <vsurf_HB5>
49.25

>  <vsurf_HB6>
15.875

>  <vsurf_HB7>
2.625

>  <vsurf_HB8>
0.5

>  <vsurf_HL1>
0.126361

>  <vsurf_HL2>
0.04565

>  <vsurf_ID1>
0.648986

>  <vsurf_ID2>
0.621058

>  <vsurf_ID3>
0.677911

>  <vsurf_ID4>
0.7031

>  <vsurf_ID5>
0.714518

>  <vsurf_ID6>
0.911497

>  <vsurf_ID7>
0.456511

>  <vsurf_ID8>
0.916738

>  <vsurf_IW1>
0.278998

>  <vsurf_IW2>
0.324002

>  <vsurf_IW3>
0.581032

>  <vsurf_IW4>
1.03051

>  <vsurf_IW5>
1.11679

>  <vsurf_IW6>
1.8251

>  <vsurf_IW7>
3.56863

>  <vsurf_IW8>
6.80261

>  <vsurf_R>
1.46657

>  <vsurf_S>
628.421

>  <vsurf_V>
921.625

>  <vsurf_W1>
1435.63

>  <vsurf_W2>
810.75

>  <vsurf_W3>
400.125

>  <vsurf_W4>
144.75

>  <vsurf_W5>
55.125

>  <vsurf_W6>
17.25

>  <vsurf_W7>
2.625

>  <vsurf_W8>
0.5

>  <vsurf_Wp1>
1123.38

>  <vsurf_Wp2>
456.25

>  <vsurf_Wp3>
84.25

>  <vsurf_Wp4>
13.875

>  <vsurf_Wp5>
5.875

>  <vsurf_Wp6>
1.375

>  <vsurf_Wp7>
0

>  <vsurf_Wp8>
0

>  <dens>
1.06562

>  <glob>
0.0533038

>  <std_dim1>
5.00599

>  <std_dim2>
1.71699

>  <std_dim3>
1.15576

>  <vol>
395.5

>  <logP(o/w)>
1.991

$$$$
D4.cdx
  MOE2008           3D

 50 53  0  0  0  0  0  0  0  0999 V2000
   -4.5320   13.1220   -0.7940 C   0  0  0  0  0  0  0  0  0  0  0  0
   -5.4190   13.7060   -0.5590 H   0  0  0  0  0  0  0  0  0  0  0  0
   -4.5160   12.3180   -1.9280 C   0  0  0  0  0  0  0  0  0  0  0  0
   -5.3890   12.2910   -2.5750 H   0  0  0  0  0  0  0  0  0  0  0  0
   -3.3940   11.5450   -2.2310 C   0  0  0  0  0  0  0  0  0  0  0  0
   -2.2950   11.5920   -1.3610 C   0  0  0  0  0  0  0  0  0  0  0  0
   -2.2670   12.3920   -0.2110 C   0  0  0  0  0  0  0  0  0  0  0  0
   -3.4140   13.1830    0.0510 C   0  0  0  0  0  0  0  0  0  0  0  0
   -1.0990   10.9190   -1.4240 N   0  0  0  0  0  0  0  0  0  0  0  0
   -0.8470   10.2710   -2.1600 H   0  0  0  0  0  0  0  0  0  0  0  0
   -0.3150   11.2490   -0.3580 C   0  0  0  0  0  0  0  0  0  0  0  0
    0.6640   10.7990   -0.2510 H   0  0  0  0  0  0  0  0  0  0  0  0
   -0.9920   12.1700    0.4250 C   0  0  0  0  0  0  0  0  0  0  0  0
   -0.4380   12.7610    1.6410 C   0  0  0  0  0  0  0  0  0  0  0  0
    0.9340   12.3240    2.1230 C   0  0  0  0  0  0  0  0  0  0  0  0
    2.0250   13.0480    1.6460 N   0  0  0  0  0  0  0  0  0  0  0  0
    3.3760   12.6340    2.0230 C   0  0  0  0  0  0  0  0  0  0  0  0
    3.6380   13.1980    2.9260 H   0  0  0  0  0  0  0  0  0  0  0  0
    3.3870   11.5710    2.2850 H   0  0  0  0  0  0  0  0  0  0  0  0
    4.3930   12.9140    0.9130 C   0  0  0  0  0  0  0  0  0  0  0  0
    4.1500   12.3070    0.0330 H   0  0  0  0  0  0  0  0  0  0  0  0
    5.3980   12.6400    1.2500 H   0  0  0  0  0  0  0  0  0  0  0  0
    4.3810   14.3180    0.4760 N   0  0  0  0  0  0  0  0  0  0  0  0
    3.1680   15.0890    0.7640 C   0  0  0  0  0  0  0  0  0  0  0  0
    3.3160   15.5430    1.7520 H   0  0  0  0  0  0  0  0  0  0  0  0
    3.0580   15.9050    0.0420 H   0  0  0  0  0  0  0  0  0  0  0  0
    1.9060   14.2220    0.7710 C   0  0  0  0  0  0  0  0  0  0  0  0
    1.7120   13.8410   -0.2380 H   0  0  0  0  0  0  0  0  0  0  0  0
    1.0430   14.8230    1.0720 H   0  0  0  0  0  0  0  0  0  0  0  0
    5.4410   14.9670   -0.1560 C   0  0  0  0  0  0  0  0  0  0  0  0
    6.6350   14.1790   -0.5340 C   0  0  0  0  0  0  0  0  0  0  0  0
    6.5420   13.1470   -1.4730 C   0  0  0  0  0  0  0  0  0  0  0  0
    5.5910   12.9020   -1.9370 H   0  0  0  0  0  0  0  0  0  0  0  0
    7.6890   12.4370   -1.8280 C   0  0  0  0  0  0  0  0  0  0  0  0
    7.6280   11.6310   -2.5560 H   0  0  0  0  0  0  0  0  0  0  0  0
    8.9200   12.7670   -1.2590 C   0  0  0  0  0  0  0  0  0  0  0  0
    9.8130   12.2140   -1.5410 H   0  0  0  0  0  0  0  0  0  0  0  0
    9.0130   13.8130   -0.3380 C   0  0  0  0  0  0  0  0  0  0  0  0
    9.9760   14.0740    0.0920 H   0  0  0  0  0  0  0  0  0  0  0  0
    7.8700   14.5270    0.0220 C   0  0  0  0  0  0  0  0  0  0  0  0
    7.9440   15.3490    0.7300 H   0  0  0  0  0  0  0  0  0  0  0  0
   -0.9930   13.6270    2.3120 O   0  0  0  0  0  0  0  0  0  0  0  0
    0.9930   11.3560    2.8730 O   0  0  0  0  0  0  0  0  0  0  0  0
    5.4570   16.1680   -0.4110 O   0  0  0  0  0  0  0  0  0  0  0  0
   -3.5130   13.9730    1.1760 O   0  0  0  0  0  0  0  0  0  0  0  0
   -3.3890   10.5560   -3.6400 Cl  0  0  0  0  0  0  0  0  0  0  0  0
   -3.1470   15.3170    0.8620 C   0  0  0  0  0  0  0  0  0  0  0  0
   -3.8990   15.7840    0.2170 H   0  0  0  0  0  0  0  0  0  0  0  0
   -2.1590   15.3700    0.3910 H   0  0  0  0  0  0  0  0  0  0  0  0
   -3.1070   15.8810    1.7990 H   0  0  0  0  0  0  0  0  0  0  0  0
  1  2  1  0  0  0  0
  1  3  1  0  0  0  0
  1  8  2  0  0  0  0
  3  4  1  0  0  0  0
  3  5  2  0  0  0  0
  5  6  1  0  0  0  0
  5 46  1  0  0  0  0
  6  7  2  0  0  0  0
  6  9  1  0  0  0  0
  7  8  1  0  0  0  0
  7 13  1  0  0  0  0
  8 45  1  0  0  0  0
  9 10  1  0  0  0  0
  9 11  1  0  0  0  0
 11 12  1  0  0  0  0
 11 13  2  0  0  0  0
 13 14  1  0  0  0  0
 14 15  1  0  0  0  0
 14 42  2  0  0  0  0
 15 16  1  0  0  0  0
 15 43  2  0  0  0  0
 16 17  1  0  0  0  0
 16 27  1  0  0  0  0
 17 18  1  0  0  0  0
 17 19  1  0  0  0  0
 17 20  1  0  0  0  0
 20 21  1  0  0  0  0
 20 22  1  0  0  0  0
 20 23  1  0  0  0  0
 23 24  1  0  0  0  0
 23 30  1  0  0  0  0
 24 25  1  0  0  0  0
 24 26  1  0  0  0  0
 24 27  1  0  0  0  0
 27 28  1  0  0  0  0
 27 29  1  0  0  0  0
 30 31  1  0  0  0  0
 30 44  2  0  0  0  0
 31 32  1  0  0  0  0
 31 40  2  0  0  0  0
 32 33  1  0  0  0  0
 32 34  2  0  0  0  0
 34 35  1  0  0  0  0
 34 36  1  0  0  0  0
 36 37  1  0  0  0  0
 36 38  2  0  0  0  0
 38 39  1  0  0  0  0
 38 40  1  0  0  0  0
 40 41  1  0  0  0  0
 45 47  1  0  0  0  0
 47 48  1  0  0  0  0
 47 49  1  0  0  0  0
 47 50  1  0  0  0  0
M  END
>  <Activity>
10.1549

>  <AM1_dipole>
4.49967

>  <AM1_E>
-123738

>  <AM1_Eele>
-947270

>  <AM1_HF>
-36.045

>  <AM1_HOMO>
-8.86606

>  <AM1_IP>
8.86606

>  <AM1_LUMO>
-0.71546

>  <diameter>
15

>  <petitjean>
0.466667

>  <petitjeanSC>
0.875

>  <radius>
8

>  <VDistEq>
3.71274

>  <VDistMa>
9.49816

>  <weinerPath>
2641

>  <weinerPol>
52

>  <BCUT_PEOE_0>
-2.71188

>  <BCUT_PEOE_1>
-0.608141

>  <BCUT_PEOE_2>
0.607411

>  <BCUT_PEOE_3>
2.6503

>  <BCUT_SLOGP_0>
-2.86001

>  <BCUT_SLOGP_1>
-0.498261

>  <BCUT_SLOGP_2>
0.7586

>  <BCUT_SLOGP_3>
2.50441

>  <BCUT_SMR_0>
-2.43203

>  <BCUT_SMR_1>
-0.411348

>  <BCUT_SMR_2>
0.818524

>  <BCUT_SMR_3>
2.92029

>  <GCUT_PEOE_0>
-0.856492

>  <GCUT_PEOE_1>
-0.400244

>  <GCUT_PEOE_2>
0.0727762

>  <GCUT_PEOE_3>
2.681

>  <GCUT_SLOGP_0>
-0.976517

>  <GCUT_SLOGP_1>
-0.323326

>  <GCUT_SLOGP_2>
0.155533

>  <GCUT_SLOGP_3>
2.68799

>  <GCUT_SMR_0>
-0.508945

>  <GCUT_SMR_1>
-0.204225

>  <GCUT_SMR_2>
0.217588

>  <GCUT_SMR_3>
2.95601

>  <a_aro>
15

>  <a_count>
50

>  <a_IC>
84.8919

>  <a_ICM>
1.69784

>  <a_nH>
20

>  <b_1rotN>
6

>  <b_1rotR>
0.181818

>  <b_ar>
16

>  <b_count>
53

>  <b_double>
3

>  <b_rotN>
6

>  <b_rotR>
0.181818

>  <b_single>
34

>  <b_triple>
0

>  <chi0v>
17.1085

>  <chi0v_C>
12.9472

>  <chi1v>
9.90253

>  <chi1v_C>
5.86004

>  <chiral>
0

>  <chiral_u>
0

>  <nmol>
1

>  <reactive>
0

>  <rings>
4

>  <Weight>
425.872

>  <a_heavy>
30

>  <a_nB>
0

>  <a_nBr>
0

>  <a_nC>
22

>  <a_nCl>
1

>  <a_nF>
0

>  <a_nI>
0

>  <a_nN>
3

>  <a_nO>
4

>  <a_nP>
0

>  <a_nS>
0

>  <b_heavy>
33

>  <chi0>
21.2503

>  <chi0_C>
14.6814

>  <chi1>
14.5072

>  <chi1_C>
7.87457

>  <FCharge>
0

>  <VAdjEq>
0.378242

>  <VAdjMa>
6.04439

>  <zagreb>
160

>  <balabanJ>
1.31938

>  <PEOE_PC+>
2.61838

>  <PEOE_PC->
-2.61838

>  <PEOE_RPC+>
0.112704

>  <PEOE_RPC->
0.137014

>  <PEOE_VSA+0>
98.93

>  <PEOE_VSA+1>
102.929

>  <PEOE_VSA+2>
0

>  <PEOE_VSA+3>
8.61901

>  <PEOE_VSA+4>
0

>  <PEOE_VSA+5>
34.3576

>  <PEOE_VSA+6>
0

>  <PEOE_VSA-0>
49.0196

>  <PEOE_VSA-1>
66.3467

>  <PEOE_VSA-2>
0

>  <PEOE_VSA-3>
0

>  <PEOE_VSA-4>
0

>  <PEOE_VSA-5>
40.7008

>  <PEOE_VSA-6>
2.64065

>  <PEOE_VSA_FHYD>
0.807458

>  <PEOE_VSA_FNEG>
0.393286

>  <PEOE_VSA_FPNEG>
0.107402

>  <PEOE_VSA_FPOL>
0.192542

>  <PEOE_VSA_FPOS>
0.606714

>  <PEOE_VSA_FPPOS>
0.0851398

>  <PEOE_VSA_HYD>
325.844

>  <PEOE_VSA_NEG>
158.708

>  <PEOE_VSA_PNEG>
43.3414

>  <PEOE_VSA_POL>
77.699

>  <PEOE_VSA_POS>
244.835

>  <PEOE_VSA_PPOS>
34.3576

>  <PC+>
5.158

>  <PC->
-5.16

>  <Q_PC+>
5.158

>  <Q_PC->
-5.16

>  <Q_RPC+>
0.127181

>  <Q_RPC->
0.127907

>  <Q_VSA_FHYD>
0.552231

>  <Q_VSA_FNEG>
0.456518

>  <Q_VSA_FPNEG>
0.14856

>  <Q_VSA_FPOL>
0.447769

>  <Q_VSA_FPOS>
0.543482

>  <Q_VSA_FPPOS>
0.299209

>  <Q_VSA_HYD>
222.849

>  <Q_VSA_NEG>
184.225

>  <Q_VSA_PNEG>
59.9504

>  <Q_VSA_POL>
180.694

>  <Q_VSA_POS>
219.318

>  <Q_VSA_PPOS>
120.744

>  <RPC+>
0.127181

>  <RPC->
0.127907

>  <lip_acc>
7

>  <lip_don>
1

>  <lip_druglike>
1

>  <lip_violation>
0

>  <opr_brigid>
22

>  <opr_leadlike>
1

>  <opr_nring>
4

>  <opr_nrot>
6

>  <opr_violation>
0

>  <E>
107.664

>  <E_ang>
8.79389

>  <E_ele>
30.8551

>  <E_nb>
80.1858

>  <E_oop>
0.0972243

>  <E_sol>
-20.4237

>  <E_stb>
0.592111

>  <E_str>
6.25184

>  <E_strain>
0.00514661

>  <E_tor>
11.7434

>  <E_vdw>
49.3307

>  <E_rele>
0

>  <E_rnb>
-1.13687e-013

>  <E_rsol>
-1.13687e-013

>  <E_rvdw>
0

>  <Kier1>
23.168

>  <Kier2>
10.2924

>  <Kier3>
4.8595

>  <KierA1>
17.1955

>  <KierA2>
7.55487

>  <KierA3>
3.53903

>  <KierFlex>
4.33032

>  <logS>
-4.81426

>  <MNDO_dipole>
4.76909

>  <MNDO_E>
-123569

>  <MNDO_Eele>
-936390

>  <MNDO_HF>
-58.3425

>  <MNDO_HOMO>
-8.88817

>  <MNDO_IP>
8.88817

>  <MNDO_LUMO>
-0.79653

>  <apol>
60.7439

>  <bpol>
31.6941

>  <mr>
11.433

>  <dipole>
1.27187

>  <dipoleX>
0.699347

>  <dipoleY>
-0.511608

>  <dipoleZ>
-0.931031

>  <pmi>
9875.04

>  <pmiX>
7715.57

>  <pmiY>
939.758

>  <pmiZ>
1219.71

>  <rgyr>
4.81537

>  <a_acc>
4

>  <a_acid>
0

>  <a_base>
0

>  <a_don>
1

>  <a_hyd>
20

>  <vsa_acc>
43.2045

>  <vsa_acid>
0

>  <vsa_base>
0

>  <vsa_don>
5.68258

>  <vsa_hyd>
303.701

>  <vsa_other>
34.3576

>  <vsa_pol>
48.8871

>  <PM3_dipole>
4.95541

>  <PM3_E>
-112800

>  <PM3_Eele>
-929465

>  <PM3_HF>
-69.636

>  <PM3_HOMO>
-8.71484

>  <PM3_IP>
8.71484

>  <PM3_LUMO>
-0.7277

>  <SlogP>
2.9972

>  <SlogP_VSA0>
10.9999

>  <SlogP_VSA1>
22.4538

>  <SlogP_VSA2>
40.6477

>  <SlogP_VSA3>
73.7583

>  <SlogP_VSA4>
54.0956

>  <SlogP_VSA5>
35.3839

>  <SlogP_VSA6>
3.50061

>  <SlogP_VSA7>
145.434

>  <SlogP_VSA8>
0

>  <SlogP_VSA9>
44.3921

>  <SMR>
11.3117

>  <SMR_VSA0>
71.5866

>  <SMR_VSA1>
17.2485

>  <SMR_VSA2>
16.7855

>  <SMR_VSA3>
15.1152

>  <SMR_VSA4>
4.7171

>  <SMR_VSA5>
140.717

>  <SMR_VSA6>
89.9635

>  <SMR_VSA7>
74.5325

>  <ASA>
667.867

>  <ASA+>
242.419

>  <ASA->
282.46

>  <ASA_H>
493.692

>  <ASA_P>
174.174

>  <CASA+>
1250.4

>  <CASA->
1457.5

>  <DASA>
40.0417

>  <DCASA>
207.1

>  <FASA+>
0.362975

>  <FASA->
0.422929

>  <FASA_H>
0.739208

>  <FASA_P>
0.260792

>  <FCASA+>
1.87222

>  <FCASA->
2.18232

>  <VSA>
422.819

>  <TPSA>
82.71

>  <density>
0.793518

>  <vdw_area>
403.543

>  <vdw_vol>
536.688

>  <vsurf_A>
3.56484

>  <vsurf_CP>
0.13395

>  <vsurf_CW1>
2.6261

>  <vsurf_CW2>
2.02805

>  <vsurf_CW3>
1.21532

>  <vsurf_CW4>
0.517686

>  <vsurf_CW5>
0.249666

>  <vsurf_CW6>
0.0743188

>  <vsurf_CW7>
0.00282322

>  <vsurf_CW8>
0

>  <vsurf_D1>
963.75

>  <vsurf_D2>
574.25

>  <vsurf_D3>
437

>  <vsurf_D4>
379.25

>  <vsurf_D5>
331

>  <vsurf_D6>
274.5

>  <vsurf_D7>
157.25

>  <vsurf_D8>
87.875

>  <vsurf_DD12>
0.707107

>  <vsurf_DD13>
0.866025

>  <vsurf_DD23>
0.5

>  <vsurf_DW12>
5.33854

>  <vsurf_DW13>
4.89898

>  <vsurf_DW23>
0.707107

>  <vsurf_EDmin1>
-2.8572

>  <vsurf_EDmin2>
-2.8056

>  <vsurf_EDmin3>
-2.76597

>  <vsurf_EWmin1>
-5.29296

>  <vsurf_EWmin2>
-5.25291

>  <vsurf_EWmin3>
-5.14445

>  <vsurf_G>
1.35358

>  <vsurf_HB1>
324.5

>  <vsurf_HB2>
363.875

>  <vsurf_HB3>
302.5

>  <vsurf_HB4>
115

>  <vsurf_HB5>
44.125

>  <vsurf_HB6>
11.125

>  <vsurf_HB7>
1

>  <vsurf_HB8>
0

>  <vsurf_HL1>
0.113558

>  <vsurf_HL2>
0.0326302

>  <vsurf_ID1>
1.06325

>  <vsurf_ID2>
1.01072

>  <vsurf_ID3>
1.05396

>  <vsurf_ID4>
1.15424

>  <vsurf_ID5>
1.24441

>  <vsurf_ID6>
1.29413

>  <vsurf_ID7>
0.99226

>  <vsurf_ID8>
0.894262

>  <vsurf_IW1>
0.320513

>  <vsurf_IW2>
0.767179

>  <vsurf_IW3>
1.42237

>  <vsurf_IW4>
2.28848

>  <vsurf_IW5>
2.53938

>  <vsurf_IW6>
2.81169

>  <vsurf_IW7>
3.4248

>  <vsurf_IW8>
0

>  <vsurf_R>
1.47543

>  <vsurf_S>
610.584

>  <vsurf_V>
900.875

>  <vsurf_W1>
1441

>  <vsurf_W2>
819

>  <vsurf_W3>
396

>  <vsurf_W4>
129.125

>  <vsurf_W5>
49.625

>  <vsurf_W6>
12.375

>  <vsurf_W7>
1

>  <vsurf_W8>
0

>  <vsurf_Wp1>
1116.5

>  <vsurf_Wp2>
455.125

>  <vsurf_Wp3>
93.5

>  <vsurf_Wp4>
14.125

>  <vsurf_Wp5>
5.5

>  <vsurf_Wp6>
1.25

>  <vsurf_Wp7>
0

>  <vsurf_Wp8>
0

>  <dens>
1.10222

>  <glob>
0.0748909

>  <std_dim1>
4.42639

>  <std_dim2>
1.76669

>  <std_dim3>
1.21133

>  <vol>
386.375

>  <logP(o/w)>
2.627

$$$$
D4.cdx
  MOE2008           3D

 50 53  0  0  0  0  0  0  0  0999 V2000
   -5.2550    8.8160    1.1240 C   0  0  0  0  0  0  0  0  0  0  0  0
   -6.1960    9.3310    0.9420 H   0  0  0  0  0  0  0  0  0  0  0  0
   -5.1600    7.9020    2.1670 C   0  0  0  0  0  0  0  0  0  0  0  0
   -6.0290    7.7230    2.7950 H   0  0  0  0  0  0  0  0  0  0  0  0
   -3.9670    7.2160    2.4000 C   0  0  0  0  0  0  0  0  0  0  0  0
   -2.8770    7.4640    1.5530 C   0  0  0  0  0  0  0  0  0  0  0  0
   -2.9270    8.3810    0.4940 C   0  0  0  0  0  0  0  0  0  0  0  0
   -4.1480    9.0780    0.3040 C   0  0  0  0  0  0  0  0  0  0  0  0
   -1.6190    6.9120    1.5560 N   0  0  0  0  0  0  0  0  0  0  0  0
   -1.3020    6.2180    2.2210 H   0  0  0  0  0  0  0  0  0  0  0  0
   -0.8710    7.4300    0.5400 C   0  0  0  0  0  0  0  0  0  0  0  0
    0.1490    7.0940    0.3960 H   0  0  0  0  0  0  0  0  0  0  0  0
   -1.6370    8.3570   -0.1490 C   0  0  0  0  0  0  0  0  0  0  0  0
   -1.1460    9.1260   -1.2900 C   0  0  0  0  0  0  0  0  0  0  0  0
    0.2590    8.8730   -1.8100 C   0  0  0  0  0  0  0  0  0  0  0  0
    1.2780    9.6510   -1.2620 N   0  0  0  0  0  0  0  0  0  0  0  0
    2.6600    9.4120   -1.6790 C   0  0  0  0  0  0  0  0  0  0  0  0
    2.7720    8.3870   -2.0480 H   0  0  0  0  0  0  0  0  0  0  0  0
    2.8570   10.0880   -2.5190 H   0  0  0  0  0  0  0  0  0  0  0  0
    3.6550    9.6760   -0.5450 C   0  0  0  0  0  0  0  0  0  0  0  0
    4.6780    9.5390   -0.9070 H   0  0  0  0  0  0  0  0  0  0  0  0
    3.4810    8.9610    0.2680 H   0  0  0  0  0  0  0  0  0  0  0  0
    3.5080   11.0200    0.0340 N   0  0  0  0  0  0  0  0  0  0  0  0
    2.2250   11.6940   -0.1780 C   0  0  0  0  0  0  0  0  0  0  0  0
    2.0410   12.4200    0.6220 H   0  0  0  0  0  0  0  0  0  0  0  0
    2.3200   12.2570   -1.1150 H   0  0  0  0  0  0  0  0  0  0  0  0
    1.0530   10.7150   -0.2740 C   0  0  0  0  0  0  0  0  0  0  0  0
    0.1330   11.2560   -0.5160 H   0  0  0  0  0  0  0  0  0  0  0  0
    0.9040   10.2170    0.6910 H   0  0  0  0  0  0  0  0  0  0  0  0
    4.5040   11.7000    0.7340 C   0  0  0  0  0  0  0  0  0  0  0  0
    5.7720   10.9980    1.0320 C   0  0  0  0  0  0  0  0  0  0  0  0
    5.7860    9.8710    1.8600 C   0  0  0  0  0  0  0  0  0  0  0  0
    4.8660    9.4880    2.2920 H   0  0  0  0  0  0  0  0  0  0  0  0
    6.9990    9.2430    2.1450 C   0  0  0  0  0  0  0  0  0  0  0  0
    7.0210    8.3650    2.7850 H   0  0  0  0  0  0  0  0  0  0  0  0
    8.1890    9.7500    1.6180 C   0  0  0  0  0  0  0  0  0  0  0  0
    9.1330    9.2610    1.8450 H   0  0  0  0  0  0  0  0  0  0  0  0
    8.1730   10.8890    0.8110 C   0  0  0  0  0  0  0  0  0  0  0  0
    9.1040   11.2870    0.4140 H   0  0  0  0  0  0  0  0  0  0  0  0
    6.9640   11.5210    0.5210 C   0  0  0  0  0  0  0  0  0  0  0  0
    6.9520   12.4160   -0.0970 H   0  0  0  0  0  0  0  0  0  0  0  0
   -1.7820   10.0030   -1.8660 O   0  0  0  0  0  0  0  0  0  0  0  0
    0.4060    7.9930   -2.6500 O   0  0  0  0  0  0  0  0  0  0  0  0
    4.4050   12.8640    1.1110 O   0  0  0  0  0  0  0  0  0  0  0  0
   -4.3240    9.9690   -0.7320 O   0  0  0  0  0  0  0  0  0  0  0  0
   -3.8660    5.9760    3.8270 Br  0  0  0  0  0  0  0  0  0  0  0  0
   -4.1000   11.3020   -0.2730 C   0  0  0  0  0  0  0  0  0  0  0  0
   -4.1150   11.9640   -1.1440 H   0  0  0  0  0  0  0  0  0  0  0  0
   -3.1230   11.4040    0.2150 H   0  0  0  0  0  0  0  0  0  0  0  0
   -4.8970   11.6190    0.4080 H   0  0  0  0  0  0  0  0  0  0  0  0
  1  2  1  0  0  0  0
  1  3  1  0  0  0  0
  1  8  2  0  0  0  0
  3  4  1  0  0  0  0
  3  5  2  0  0  0  0
  5  6  1  0  0  0  0
  5 46  1  0  0  0  0
  6  7  2  0  0  0  0
  6  9  1  0  0  0  0
  7  8  1  0  0  0  0
  7 13  1  0  0  0  0
  8 45  1  0  0  0  0
  9 10  1  0  0  0  0
  9 11  1  0  0  0  0
 11 12  1  0  0  0  0
 11 13  2  0  0  0  0
 13 14  1  0  0  0  0
 14 15  1  0  0  0  0
 14 42  2  0  0  0  0
 15 16  1  0  0  0  0
 15 43  2  0  0  0  0
 16 17  1  0  0  0  0
 16 27  1  0  0  0  0
 17 18  1  0  0  0  0
 17 19  1  0  0  0  0
 17 20  1  0  0  0  0
 20 21  1  0  0  0  0
 20 22  1  0  0  0  0
 20 23  1  0  0  0  0
 23 24  1  0  0  0  0
 23 30  1  0  0  0  0
 24 25  1  0  0  0  0
 24 26  1  0  0  0  0
 24 27  1  0  0  0  0
 27 28  1  0  0  0  0
 27 29  1  0  0  0  0
 30 31  1  0  0  0  0
 30 44  2  0  0  0  0
 31 32  1  0  0  0  0
 31 40  2  0  0  0  0
 32 33  1  0  0  0  0
 32 34  2  0  0  0  0
 34 35  1  0  0  0  0
 34 36  1  0  0  0  0
 36 37  1  0  0  0  0
 36 38  2  0  0  0  0
 38 39  1  0  0  0  0
 38 40  1  0  0  0  0
 40 41  1  0  0  0  0
 45 47  1  0  0  0  0
 47 48  1  0  0  0  0
 47 49  1  0  0  0  0
 47 50  1  0  0  0  0
M  END
>  <Activity>
9.886

>  <AM1_dipole>
4.26513

>  <AM1_E>
-123265

>  <AM1_Eele>
-944489

>  <AM1_HF>
-24.3638

>  <AM1_HOMO>
-8.9207

>  <AM1_IP>
8.9207

>  <AM1_LUMO>
-0.75801

>  <diameter>
15

>  <petitjean>
0.466667

>  <petitjeanSC>
0.875

>  <radius>
8

>  <VDistEq>
3.71274

>  <VDistMa>
9.49816

>  <weinerPath>
2641

>  <weinerPol>
52

>  <BCUT_PEOE_0>
-2.71188

>  <BCUT_PEOE_1>
-0.607297

>  <BCUT_PEOE_2>
0.608983

>  <BCUT_PEOE_3>
2.65029

>  <BCUT_SLOGP_0>
-2.86001

>  <BCUT_SLOGP_1>
-0.497497

>  <BCUT_SLOGP_2>
0.758601

>  <BCUT_SLOGP_3>
2.50442

>  <BCUT_SMR_0>
-2.43203

>  <BCUT_SMR_1>
-0.410076

>  <BCUT_SMR_2>
0.820605

>  <BCUT_SMR_3>
2.92029

>  <GCUT_PEOE_0>
-0.857302

>  <GCUT_PEOE_1>
-0.400229

>  <GCUT_PEOE_2>
0.0729116

>  <GCUT_PEOE_3>
2.68057

>  <GCUT_SLOGP_0>
-0.976518

>  <GCUT_SLOGP_1>
-0.326999

>  <GCUT_SLOGP_2>
0.155533

>  <GCUT_SLOGP_3>
2.68934

>  <GCUT_SMR_0>
-0.508945

>  <GCUT_SMR_1>
-0.204225

>  <GCUT_SMR_2>
0.219066

>  <GCUT_SMR_3>
2.95842

>  <a_aro>
15

>  <a_count>
50

>  <a_IC>
84.8919

>  <a_ICM>
1.69784

>  <a_nH>
20

>  <b_1rotN>
6

>  <b_1rotR>
0.181818

>  <b_ar>
16

>  <b_count>
53

>  <b_double>
3

>  <b_rotN>
6

>  <b_rotR>
0.181818

>  <b_single>
34

>  <b_triple>
0

>  <chi0v>
17.9386

>  <chi0v_C>
12.9472

>  <chi1v>
10.3176

>  <chi1v_C>
5.86004

>  <chiral>
0

>  <chiral_u>
0

>  <nmol>
1

>  <reactive>
0

>  <rings>
4

>  <Weight>
470.323

>  <a_heavy>
30

>  <a_nB>
0

>  <a_nBr>
1

>  <a_nC>
22

>  <a_nCl>
0

>  <a_nF>
0

>  <a_nI>
0

>  <a_nN>
3

>  <a_nO>
4

>  <a_nP>
0

>  <a_nS>
0

>  <b_heavy>
33

>  <chi0>
21.2503

>  <chi0_C>
14.6814

>  <chi1>
14.5072

>  <chi1_C>
7.87457

>  <FCharge>
0

>  <VAdjEq>
0.378242

>  <VAdjMa>
6.04439

>  <zagreb>
160

>  <balabanJ>
1.31938

>  <PEOE_PC+>
2.59013

>  <PEOE_PC->
-2.59013

>  <PEOE_RPC+>
0.113933

>  <PEOE_RPC->
0.138614

>  <PEOE_VSA+0>
101.182

>  <PEOE_VSA+1>
98.4089

>  <PEOE_VSA+2>
0

>  <PEOE_VSA+3>
8.61901

>  <PEOE_VSA+4>
0

>  <PEOE_VSA+5>
34.3576

>  <PEOE_VSA+6>
0

>  <PEOE_VSA-0>
92.6445

>  <PEOE_VSA-1>
36.7647

>  <PEOE_VSA-2>
0

>  <PEOE_VSA-3>
0

>  <PEOE_VSA-4>
0

>  <PEOE_VSA-5>
40.7008

>  <PEOE_VSA-6>
2.64065

>  <PEOE_VSA_FHYD>
0.812917

>  <PEOE_VSA_FNEG>
0.415947

>  <PEOE_VSA_FPNEG>
0.104357

>  <PEOE_VSA_FPOL>
0.187083

>  <PEOE_VSA_FPOS>
0.584053

>  <PEOE_VSA_FPPOS>
0.0827259

>  <PEOE_VSA_HYD>
337.619

>  <PEOE_VSA_NEG>
172.751

>  <PEOE_VSA_PNEG>
43.3414

>  <PEOE_VSA_POL>
77.699

>  <PEOE_VSA_POS>
242.568

>  <PEOE_VSA_PPOS>
34.3576

>  <PC+>
5.092

>  <PC->
-5.094

>  <Q_PC+>
5.092

>  <Q_PC->
-5.094

>  <Q_RPC+>
0.12883

>  <Q_RPC->
0.129564

>  <Q_VSA_FHYD>
0.564927

>  <Q_VSA_FNEG>
0.477387

>  <Q_VSA_FPNEG>
0.144348

>  <Q_VSA_FPOL>
0.435074

>  <Q_VSA_FPOS>
0.522613

>  <Q_VSA_FPPOS>
0.290725

>  <Q_VSA_HYD>
234.624

>  <Q_VSA_NEG>
198.268

>  <Q_VSA_PNEG>
59.9504

>  <Q_VSA_POL>
180.694

>  <Q_VSA_POS>
217.051

>  <Q_VSA_PPOS>
120.744

>  <RPC+>
0.12883

>  <RPC->
0.129564

>  <lip_acc>
7

>  <lip_don>
1

>  <lip_druglike>
1

>  <lip_violation>
0

>  <opr_brigid>
22

>  <opr_leadlike>
1

>  <opr_nring>
4

>  <opr_nrot>
6

>  <opr_violation>
1

>  <E>
108.095

>  <E_ang>
8.78812

>  <E_ele>
31.144

>  <E_nb>
80.5606

>  <E_oop>
0.0978824

>  <E_sol>
-20.4928

>  <E_stb>
0.605448

>  <E_str>
6.29854

>  <E_strain>
0.00444786

>  <E_tor>
11.7448

>  <E_vdw>
49.4166

>  <E_rele>
0

>  <E_rnb>
-1.42109e-014

>  <E_rsol>
-1.42109e-014

>  <E_rvdw>
0

>  <Kier1>
23.168

>  <Kier2>
10.2924

>  <Kier3>
4.8595

>  <KierA1>
17.8318

>  <KierA2>
7.84551

>  <KierA3>
3.67887

>  <KierFlex>
4.66331

>  <logS>
-5.17036

>  <MNDO_dipole>
4.70836

>  <MNDO_E>
-123408

>  <MNDO_Eele>
-935124

>  <MNDO_HF>
-27.1831

>  <MNDO_HOMO>
-8.83845

>  <MNDO_IP>
8.83845

>  <MNDO_LUMO>
-0.7622

>  <apol>
61.6139

>  <bpol>
32.5641

>  <mr>
11.6828

>  <dipole>
1.34399

>  <dipoleX>
0.75275

>  <dipoleY>
-0.59502

>  <dipoleZ>
0.941079

>  <pmi>
11616.6

>  <pmiX>
8217.29

>  <pmiY>
1810.63

>  <pmiZ>
1588.66

>  <rgyr>
4.96982

>  <a_acc>
4

>  <a_acid>
0

>  <a_base>
0

>  <a_don>
1

>  <a_hyd>
20

>  <vsa_acc>
43.2045

>  <vsa_acid>
0

>  <vsa_base>
0

>  <vsa_don>
5.68258

>  <vsa_hyd>
315.476

>  <vsa_other>
34.3576

>  <vsa_pol>
48.8871

>  <PM3_dipole>
4.25283

>  <PM3_E>
-113644

>  <PM3_Eele>
-924765

>  <PM3_HF>
-54.5409

>  <PM3_HOMO>
-8.81562

>  <PM3_IP>
8.81562

>  <PM3_LUMO>
-0.71598

>  <SlogP>
3.1063

>  <SlogP_VSA0>
10.9999

>  <SlogP_VSA1>
22.4538

>  <SlogP_VSA2>
40.6477

>  <SlogP_VSA3>
73.7583

>  <SlogP_VSA4>
54.0956

>  <SlogP_VSA5>
38.439

>  <SlogP_VSA6>
0

>  <SlogP_VSA7>
145.434

>  <SlogP_VSA8>
0

>  <SlogP_VSA9>
51.1975

>  <SMR>
11.5807

>  <SMR_VSA0>
71.5866

>  <SMR_VSA1>
17.2485

>  <SMR_VSA2>
19.8406

>  <SMR_VSA3>
11.6146

>  <SMR_VSA4>
4.7171

>  <SMR_VSA5>
140.717

>  <SMR_VSA6>
89.9635

>  <SMR_VSA7>
81.338

>  <ASA>
683.169

>  <ASA+>
236.647

>  <ASA->
300.277

>  <ASA_H>
512.919

>  <ASA_P>
170.251

>  <CASA+>
1205.01

>  <CASA->
1529.61

>  <DASA>
63.6305

>  <DCASA>
324.607

>  <FASA+>
0.346396

>  <FASA->
0.439536

>  <FASA_H>
0.750793

>  <FASA_P>
0.249207

>  <FCASA+>
1.76385

>  <FCASA->
2.23899

>  <VSA>
433.649

>  <TPSA>
82.71

>  <density>
0.855568

>  <vdw_area>
415.318

>  <vdw_vol>
549.72

>  <vsurf_A>
3.61469

>  <vsurf_CP>
0.138926

>  <vsurf_CW1>
2.62684

>  <vsurf_CW2>
2.04915

>  <vsurf_CW3>
1.21112

>  <vsurf_CW4>
0.511775

>  <vsurf_CW5>
0.244233

>  <vsurf_CW6>
0.0718116

>  <vsurf_CW7>
0.0033476

>  <vsurf_CW8>
0

>  <vsurf_D1>
1005.38

>  <vsurf_D2>
594.875

>  <vsurf_D3>
450.125

>  <vsurf_D4>
387.25

>  <vsurf_D5>
338

>  <vsurf_D6>
274.625

>  <vsurf_D7>
163.5

>  <vsurf_D8>
90.625

>  <vsurf_DD12>
0.5

>  <vsurf_DD13>
0.866025

>  <vsurf_DD23>
0.707107

>  <vsurf_DW12>
5.12348

>  <vsurf_DW13>
0.866025

>  <vsurf_DW23>
5.52268

>  <vsurf_EDmin1>
-2.82831

>  <vsurf_EDmin2>
-2.8062

>  <vsurf_EDmin3>
-2.78675

>  <vsurf_EWmin1>
-5.28617

>  <vsurf_EWmin2>
-5.27158

>  <vsurf_EWmin3>
-5.18743

>  <vsurf_G>
1.3604

>  <vsurf_HB1>
328.125

>  <vsurf_HB2>
369.25

>  <vsurf_HB3>
304.25

>  <vsurf_HB4>
117.625

>  <vsurf_HB5>
43.625

>  <vsurf_HB6>
9.625

>  <vsurf_HB7>
1.125

>  <vsurf_HB8>
0

>  <vsurf_HL1>
0.109692

>  <vsurf_HL2>
0.0287282

>  <vsurf_ID1>
1.03042

>  <vsurf_ID2>
0.960404

>  <vsurf_ID3>
1.00872

>  <vsurf_ID4>
1.12932

>  <vsurf_ID5>
1.15738

>  <vsurf_ID6>
1.13615

>  <vsurf_ID7>
0.717449

>  <vsurf_ID8>
0.547616

>  <vsurf_IW1>
0.725659

>  <vsurf_IW2>
1.18393

>  <vsurf_IW3>
1.82664

>  <vsurf_IW4>
2.67545

>  <vsurf_IW5>
2.89238

>  <vsurf_IW6>
3.33696

>  <vsurf_IW7>
3.44985

>  <vsurf_IW8>
0

>  <vsurf_R>
1.47446

>  <vsurf_S>
619.042

>  <vsurf_V>
912.75

>  <vsurf_W1>
1471.63

>  <vsurf_W2>
835.75

>  <vsurf_W3>
399.625

>  <vsurf_W4>
132.375

>  <vsurf_W5>
49.375

>  <vsurf_W6>
11.125

>  <vsurf_W7>
1.125

>  <vsurf_W8>
0

>  <vsurf_Wp1>
1143.5

>  <vsurf_Wp2>
466.5

>  <vsurf_Wp3>
95.375

>  <vsurf_Wp4>
14.75

>  <vsurf_Wp5>
5.75

>  <vsurf_Wp6>
1.5

>  <vsurf_Wp7>
0

>  <vsurf_Wp8>
0

>  <dens>
1.18656

>  <glob>
0.074131

>  <std_dim1>
4.43539

>  <std_dim2>
1.77481

>  <std_dim3>
1.20762

>  <vol>
396.375

>  <logP(o/w)>
2.833

$$$$
D4.cdx
  MOE2008           3D

 51 54  0  0  0  0  0  0  0  0999 V2000
   -4.5910    4.8320    1.1020 C   0  0  0  0  0  0  0  0  0  0  0  0
   -5.4980    5.4320    1.0810 H   0  0  0  0  0  0  0  0  0  0  0  0
   -4.5640    3.6470    1.8280 C   0  0  0  0  0  0  0  0  0  0  0  0
   -5.4560    3.3440    2.3740 H   0  0  0  0  0  0  0  0  0  0  0  0
   -3.4160    2.8460    1.8520 C   0  0  0  0  0  0  0  0  0  0  0  0
   -2.2940    3.2760    1.1130 C   0  0  0  0  0  0  0  0  0  0  0  0
   -2.2800    4.4670    0.3700 C   0  0  0  0  0  0  0  0  0  0  0  0
   -3.4580    5.2570    0.3950 C   0  0  0  0  0  0  0  0  0  0  0  0
   -1.0630    2.6820    0.9460 N   0  0  0  0  0  0  0  0  0  0  0  0
   -0.7840    1.8040    1.3660 H   0  0  0  0  0  0  0  0  0  0  0  0
   -0.2740    3.4430    0.1300 C   0  0  0  0  0  0  0  0  0  0  0  0
    0.7290    3.1120   -0.1090 H   0  0  0  0  0  0  0  0  0  0  0  0
   -0.9860    4.5630   -0.2630 C   0  0  0  0  0  0  0  0  0  0  0  0
   -0.4570    5.5990   -1.1520 C   0  0  0  0  0  0  0  0  0  0  0  0
    0.9350    5.4560   -1.7460 C   0  0  0  0  0  0  0  0  0  0  0  0
    1.9650    6.1680   -1.1290 N   0  0  0  0  0  0  0  0  0  0  0  0
    3.3240    6.0570   -1.6620 C   0  0  0  0  0  0  0  0  0  0  0  0
    3.4470    5.1050   -2.1880 H   0  0  0  0  0  0  0  0  0  0  0  0
    3.4380    6.8590   -2.4010 H   0  0  0  0  0  0  0  0  0  0  0  0
    4.3870    6.1960   -0.5670 C   0  0  0  0  0  0  0  0  0  0  0  0
    5.3860    6.1610   -1.0110 H   0  0  0  0  0  0  0  0  0  0  0  0
    4.2960    5.3610    0.1380 H   0  0  0  0  0  0  0  0  0  0  0  0
    4.2320    7.4310    0.2160 N   0  0  0  0  0  0  0  0  0  0  0  0
    2.9070    8.0560    0.2090 C   0  0  0  0  0  0  0  0  0  0  0  0
    2.7570    8.6320    1.1290 H   0  0  0  0  0  0  0  0  0  0  0  0
    2.9000    8.7650   -0.6270 H   0  0  0  0  0  0  0  0  0  0  0  0
    1.7750    7.0370    0.0390 C   0  0  0  0  0  0  0  0  0  0  0  0
    0.8170    7.5590   -0.0310 H   0  0  0  0  0  0  0  0  0  0  0  0
    1.7310    6.3760    0.9140 H   0  0  0  0  0  0  0  0  0  0  0  0
    5.2540    8.0580    0.9280 C   0  0  0  0  0  0  0  0  0  0  0  0
    6.5640    7.3780    1.0390 C   0  0  0  0  0  0  0  0  0  0  0  0
    6.6730    6.1410    1.6840 C   0  0  0  0  0  0  0  0  0  0  0  0
    5.7970    5.6580    2.1090 H   0  0  0  0  0  0  0  0  0  0  0  0
    7.9220    5.5320    1.7950 C   0  0  0  0  0  0  0  0  0  0  0  0
    8.0170    4.5690    2.2920 H   0  0  0  0  0  0  0  0  0  0  0  0
    9.0560    6.1630    1.2780 C   0  0  0  0  0  0  0  0  0  0  0  0
   10.0290    5.6870    1.3690 H   0  0  0  0  0  0  0  0  0  0  0  0
    8.9470    7.4080    0.6560 C   0  0  0  0  0  0  0  0  0  0  0  0
    9.8340    7.9010    0.2680 H   0  0  0  0  0  0  0  0  0  0  0  0
    7.7000    8.0230    0.5410 C   0  0  0  0  0  0  0  0  0  0  0  0
    7.6170    8.9980    0.0680 H   0  0  0  0  0  0  0  0  0  0  0  0
   -1.0640    6.6190   -1.4640 O   0  0  0  0  0  0  0  0  0  0  0  0
    1.0640    4.7260   -2.7220 O   0  0  0  0  0  0  0  0  0  0  0  0
    5.1430    9.1550    1.4670 O   0  0  0  0  0  0  0  0  0  0  0  0
   -3.5730    6.4230   -0.3310 O   0  0  0  0  0  0  0  0  0  0  0  0
   -3.4120    1.6250    2.6030 C   0  0  0  0  0  0  0  0  0  0  0  0
   -3.2680    7.5460    0.4960 C   0  0  0  0  0  0  0  0  0  0  0  0
   -4.0440    7.6930    1.2550 H   0  0  0  0  0  0  0  0  0  0  0  0
   -3.2440    8.4350   -0.1400 H   0  0  0  0  0  0  0  0  0  0  0  0
   -2.2860    7.4430    0.9740 H   0  0  0  0  0  0  0  0  0  0  0  0
   -3.4020    0.6370    3.2120 N   0  0  0  0  0  0  0  0  0  0  0  0
  1  2  1  0  0  0  0
  1  3  1  0  0  0  0
  1  8  2  0  0  0  0
  3  4  1  0  0  0  0
  3  5  2  0  0  0  0
  5  6  1  0  0  0  0
  5 46  1  0  0  0  0
  6  7  2  0  0  0  0
  6  9  1  0  0  0  0
  7  8  1  0  0  0  0
  7 13  1  0  0  0  0
  8 45  1  0  0  0  0
  9 10  1  0  0  0  0
  9 11  1  0  0  0  0
 11 12  1  0  0  0  0
 11 13  2  0  0  0  0
 13 14  1  0  0  0  0
 14 15  1  0  0  0  0
 14 42  2  0  0  0  0
 15 16  1  0  0  0  0
 15 43  2  0  0  0  0
 16 17  1  0  0  0  0
 16 27  1  0  0  0  0
 17 18  1  0  0  0  0
 17 19  1  0  0  0  0
 17 20  1  0  0  0  0
 20 21  1  0  0  0  0
 20 22  1  0  0  0  0
 20 23  1  0  0  0  0
 23 24  1  0  0  0  0
 23 30  1  0  0  0  0
 24 25  1  0  0  0  0
 24 26  1  0  0  0  0
 24 27  1  0  0  0  0
 27 28  1  0  0  0  0
 27 29  1  0  0  0  0
 30 31  1  0  0  0  0
 30 44  2  0  0  0  0
 31 32  1  0  0  0  0
 31 40  2  0  0  0  0
 32 33  1  0  0  0  0
 32 34  2  0  0  0  0
 34 35  1  0  0  0  0
 34 36  1  0  0  0  0
 36 37  1  0  0  0  0
 36 38  2  0  0  0  0
 38 39  1  0  0  0  0
 38 40  1  0  0  0  0
 40 41  1  0  0  0  0
 45 47  1  0  0  0  0
 46 51  3  0  0  0  0
 47 48  1  0  0  0  0
 47 49  1  0  0  0  0
 47 50  1  0  0  0  0
M  END
>  <Activity>
10.2218

>  <AM1_dipole>
3.11024

>  <AM1_E>
-122825

>  <AM1_Eele>
-959644

>  <AM1_HF>
21.5939

>  <AM1_HOMO>
-9.10146

>  <AM1_IP>
9.10146

>  <AM1_LUMO>
-1.0139

>  <diameter>
16

>  <petitjean>
0.5

>  <petitjeanSC>
1

>  <radius>
8

>  <VDistEq>
3.75108

>  <VDistMa>
9.59505

>  <weinerPath>
2887

>  <weinerPol>
54

>  <BCUT_PEOE_0>
-2.71188

>  <BCUT_PEOE_1>
-0.619274

>  <BCUT_PEOE_2>
0.615456

>  <BCUT_PEOE_3>
2.6503

>  <BCUT_SLOGP_0>
-2.86001

>  <BCUT_SLOGP_1>
-0.524288

>  <BCUT_SLOGP_2>
0.703736

>  <BCUT_SLOGP_3>
2.50405

>  <BCUT_SMR_0>
-2.43203

>  <BCUT_SMR_1>
-0.411253

>  <BCUT_SMR_2>
0.78751

>  <BCUT_SMR_3>
2.92029

>  <GCUT_PEOE_0>
-0.856708

>  <GCUT_PEOE_1>
-0.41772

>  <GCUT_PEOE_2>
0.0722585

>  <GCUT_PEOE_3>
2.69068

>  <GCUT_SLOGP_0>
-0.976521

>  <GCUT_SLOGP_1>
-0.339711

>  <GCUT_SLOGP_2>
0.146613

>  <GCUT_SLOGP_3>
2.68781

>  <GCUT_SMR_0>
-0.508946

>  <GCUT_SMR_1>
-0.206666

>  <GCUT_SMR_2>
0.206198

>  <GCUT_SMR_3>
2.96365

>  <a_aro>
15

>  <a_count>
51

>  <a_IC>
82.8132

>  <a_ICM>
1.62379

>  <a_nH>
20

>  <b_1rotN>
6

>  <b_1rotR>
0.176471

>  <b_ar>
16

>  <b_count>
54

>  <b_double>
3

>  <b_rotN>
7

>  <b_rotR>
0.205882

>  <b_single>
34

>  <b_triple>
1

>  <chi0v>
16.9219

>  <chi0v_C>
13.4472

>  <chi1v>
9.80919

>  <chi1v_C>
6.11004

>  <chiral>
0

>  <chiral_u>
0

>  <nmol>
1

>  <reactive>
0

>  <rings>
4

>  <Weight>
416.437

>  <a_heavy>
31

>  <a_nB>
0

>  <a_nBr>
0

>  <a_nC>
23

>  <a_nCl>
0

>  <a_nF>
0

>  <a_nI>
0

>  <a_nN>
4

>  <a_nO>
4

>  <a_nP>
0

>  <a_nS>
0

>  <b_heavy>
34

>  <chi0>
21.9575

>  <chi0_C>
15.3885

>  <chi1>
15.0452

>  <chi1_C>
8.28282

>  <FCharge>
0

>  <VAdjEq>
0.368752

>  <VAdjMa>
6.08746

>  <zagreb>
164

>  <balabanJ>
1.32757

>  <PEOE_PC+>
2.72904

>  <PEOE_PC->
-2.72904

>  <PEOE_RPC+>
0.108133

>  <PEOE_RPC->
0.131506

>  <PEOE_VSA+0>
98.93

>  <PEOE_VSA+1>
100.617

>  <PEOE_VSA+2>
20.2995

>  <PEOE_VSA+3>
8.61901

>  <PEOE_VSA+4>
0

>  <PEOE_VSA+5>
34.3576

>  <PEOE_VSA+6>
0

>  <PEOE_VSA-0>
49.0196

>  <PEOE_VSA-1>
36.7647

>  <PEOE_VSA-2>
0

>  <PEOE_VSA-3>
17.7425

>  <PEOE_VSA-4>
0

>  <PEOE_VSA-5>
40.7008

>  <PEOE_VSA-6>
2.64065

>  <PEOE_VSA_FHYD>
0.810348

>  <PEOE_VSA_FNEG>
0.358485

>  <PEOE_VSA_FPNEG>
0.10579

>  <PEOE_VSA_FPOL>
0.189652

>  <PEOE_VSA_FPOS>
0.641515

>  <PEOE_VSA_FPPOS>
0.083862

>  <PEOE_VSA_HYD>
331.993

>  <PEOE_VSA_NEG>
146.868

>  <PEOE_VSA_PNEG>
43.3414

>  <PEOE_VSA_POL>
77.699

>  <PEOE_VSA_POS>
262.824

>  <PEOE_VSA_PPOS>
34.3576

>  <PC+>
5.538

>  <PC->
-5.54

>  <Q_PC+>
5.538

>  <Q_PC->
-5.54

>  <Q_RPC+>
0.118454

>  <Q_RPC->
0.119134

>  <Q_VSA_FHYD>
0.466096

>  <Q_VSA_FNEG>
0.420768

>  <Q_VSA_FPNEG>
0.189638

>  <Q_VSA_FPOL>
0.533904

>  <Q_VSA_FPOS>
0.579232

>  <Q_VSA_FPPOS>
0.344266

>  <Q_VSA_HYD>
190.956

>  <Q_VSA_NEG>
172.385

>  <Q_VSA_PNEG>
77.6929

>  <Q_VSA_POL>
218.736

>  <Q_VSA_POS>
237.306

>  <Q_VSA_PPOS>
141.043

>  <RPC+>
0.118454

>  <RPC->
0.119134

>  <lip_acc>
8

>  <lip_don>
1

>  <lip_druglike>
1

>  <lip_violation>
0

>  <opr_brigid>
22

>  <opr_leadlike>
1

>  <opr_nring>
4

>  <opr_nrot>
7

>  <opr_violation>
0

>  <E>
113.777

>  <E_ang>
8.89558

>  <E_ele>
35.9561

>  <E_nb>
85.7502

>  <E_oop>
0.0722701

>  <E_sol>
-26.2295

>  <E_stb>
0.589132

>  <E_str>
6.87381

>  <E_strain>
0.00660664

>  <E_tor>
11.5959

>  <E_vdw>
49.7941

>  <E_rele>
0

>  <E_rnb>
2.84217e-014

>  <E_rsol>
2.84217e-014

>  <E_rvdw>
0

>  <Kier1>
24.1349

>  <Kier2>
10.9505

>  <Kier3>
5.08651

>  <KierA1>
16.3165

>  <KierA2>
7.29803

>  <KierA3>
3.3545

>  <KierFlex>
3.84124

>  <logS>
-4.4309

>  <MNDO_dipole>
3.50715

>  <MNDO_E>
-123093

>  <MNDO_Eele>
-950206

>  <MNDO_HF>
-19.067

>  <MNDO_HOMO>
-9.05741

>  <MNDO_IP>
9.05741

>  <MNDO_LUMO>
-1.08445

>  <apol>
61.4239

>  <bpol>
31.9341

>  <mr>
11.5176

>  <dipole>
0.982985

>  <dipoleX>
0.761782

>  <dipoleY>
-0.376492

>  <dipoleZ>
0.494168

>  <pmi>
9973.59

>  <pmiX>
7512.04

>  <pmiY>
1705.24

>  <pmiZ>
756.306

>  <rgyr>
4.89386

>  <a_acc>
5

>  <a_acid>
0

>  <a_base>
0

>  <a_don>
1

>  <a_hyd>
19

>  <vsa_acc>
60.947

>  <vsa_acid>
0

>  <vsa_base>
0

>  <vsa_don>
5.68258

>  <vsa_hyd>
271.808

>  <vsa_other>
54.6571

>  <vsa_pol>
66.6296

>  <PM3_dipole>
1.77493

>  <PM3_E>
-111946

>  <PM3_Eele>
-935434

>  <PM3_HF>
-30.1962

>  <PM3_HOMO>
-8.82167

>  <PM3_IP>
8.82167

>  <PM3_LUMO>
-0.96137

>  <SlogP>
2.21548

>  <SlogP_VSA0>
10.9999

>  <SlogP_VSA1>
22.4538

>  <SlogP_VSA2>
40.6477

>  <SlogP_VSA3>
121.419

>  <SlogP_VSA4>
57.2812

>  <SlogP_VSA5>
35.3839

>  <SlogP_VSA6>
0

>  <SlogP_VSA7>
145.434

>  <SlogP_VSA8>
0

>  <SlogP_VSA9>
5.24343

>  <SMR>
11.2822

>  <SMR_VSA0>
71.5866

>  <SMR_VSA1>
48.3079

>  <SMR_VSA2>
16.7855

>  <SMR_VSA3>
31.4019

>  <SMR_VSA4>
4.7171

>  <SMR_VSA5>
140.717

>  <SMR_VSA6>
89.9635

>  <SMR_VSA7>
35.3839

>  <ASA>
674.054

>  <ASA+>
268.38

>  <ASA->
261.405

>  <ASA_H>
424.607

>  <ASA_P>
249.447

>  <CASA+>
1486.29

>  <CASA->
1448.18

>  <DASA>
6.97518

>  <DCASA>
38.1057

>  <FASA+>
0.398159

>  <FASA->
0.38781

>  <FASA_H>
0.62993

>  <FASA_P>
0.37007

>  <FCASA+>
2.205

>  <FCASA->
2.14847

>  <VSA>
428.631

>  <TPSA>
106.5

>  <density>
0.762478

>  <vdw_area>
409.692

>  <vdw_vol>
546.163

>  <vsurf_A>
2.2976

>  <vsurf_CP>
0.113032

>  <vsurf_CW1>
2.6838

>  <vsurf_CW2>
2.18377

>  <vsurf_CW3>
1.4398

>  <vsurf_CW4>
0.622009

>  <vsurf_CW5>
0.289519

>  <vsurf_CW6>
0.0834295

>  <vsurf_CW7>
0.00492822

>  <vsurf_CW8>
0

>  <vsurf_D1>
977.125

>  <vsurf_D2>
591.375

>  <vsurf_D3>
441.875

>  <vsurf_D4>
375.25

>  <vsurf_D5>
321.125

>  <vsurf_D6>
263.75

>  <vsurf_D7>
171.125

>  <vsurf_D8>
104.125

>  <vsurf_DD12>
0.5

>  <vsurf_DD13>
0.707107

>  <vsurf_DD23>
0.5

>  <vsurf_DW12>
0.5

>  <vsurf_DW13>
5.76628

>  <vsurf_DW23>
5.95819

>  <vsurf_EDmin1>
-2.85956

>  <vsurf_EDmin2>
-2.83701

>  <vsurf_EDmin3>
-2.80963

>  <vsurf_EWmin1>
-5.43456

>  <vsurf_EWmin2>
-5.42809

>  <vsurf_EWmin3>
-5.33573

>  <vsurf_G>
1.37399

>  <vsurf_HB1>
400.875

>  <vsurf_HB2>
469.5

>  <vsurf_HB3>
371.375

>  <vsurf_HB4>
145.25

>  <vsurf_HB5>
51.875

>  <vsurf_HB6>
11.25

>  <vsurf_HB7>
0.875

>  <vsurf_HB8>
0

>  <vsurf_HL1>
0.131542

>  <vsurf_HL2>
0.0353098

>  <vsurf_ID1>
0.977107

>  <vsurf_ID2>
0.987491

>  <vsurf_ID3>
0.96869

>  <vsurf_ID4>
1.05369

>  <vsurf_ID5>
1.16228

>  <vsurf_ID6>
1.21496

>  <vsurf_ID7>
1.50244

>  <vsurf_ID8>
2.15422

>  <vsurf_IW1>
0.703144

>  <vsurf_IW2>
0.993823

>  <vsurf_IW3>
1.23899

>  <vsurf_IW4>
1.54474

>  <vsurf_IW5>
1.54032

>  <vsurf_IW6>
1.62974

>  <vsurf_IW7>
4.06482

>  <vsurf_IW8>
0

>  <vsurf_R>
1.45748

>  <vsurf_S>
623.166

>  <vsurf_V>
908.25

>  <vsurf_W1>
1572

>  <vsurf_W2>
948.625

>  <vsurf_W3>
476.625

>  <vsurf_W4>
161.375

>  <vsurf_W5>
58.125

>  <vsurf_W6>
13.25

>  <vsurf_W7>
0.875

>  <vsurf_W8>
0

>  <vsurf_Wp1>
1171.13

>  <vsurf_Wp2>
479.125

>  <vsurf_Wp3>
105.25

>  <vsurf_Wp4>
16.125

>  <vsurf_Wp5>
6.25

>  <vsurf_Wp6>
2

>  <vsurf_Wp7>
0

>  <vsurf_Wp8>
0

>  <dens>
1.06438

>  <glob>
0.0679829

>  <std_dim1>
4.56249

>  <std_dim2>
1.83389

>  <std_dim3>
1.1896

>  <vol>
391.25

>  <logP(o/w)>
1.695

$$$$
D4.cdx
  MOE2008           3D

 50 53  0  0  0  0  0  0  0  0999 V2000
   -4.8800    1.6000    0.6480 C   0  0  0  0  0  0  0  0  0  0  0  0
   -5.6360    2.3650    0.4890 H   0  0  0  0  0  0  0  0  0  0  0  0
   -5.1850    0.4860    1.4220 C   0  0  0  0  0  0  0  0  0  0  0  0
   -6.1750    0.4030    1.8630 H   0  0  0  0  0  0  0  0  0  0  0  0
   -4.2350   -0.5170    1.6270 C   0  0  0  0  0  0  0  0  0  0  0  0
   -2.9770   -0.3780    1.0250 C   0  0  0  0  0  0  0  0  0  0  0  0
   -2.6290    0.7290    0.2390 C   0  0  0  0  0  0  0  0  0  0  0  0
   -3.6070    1.7430    0.0780 C   0  0  0  0  0  0  0  0  0  0  0  0
   -1.8890   -1.2170    1.0530 N   0  0  0  0  0  0  0  0  0  0  0  0
   -1.8620   -2.0980    1.5510 H   0  0  0  0  0  0  0  0  0  0  0  0
   -0.8660   -0.6930    0.3160 C   0  0  0  0  0  0  0  0  0  0  0  0
    0.0680   -1.2340    0.2290 H   0  0  0  0  0  0  0  0  0  0  0  0
   -1.2790    0.5160   -0.2180 C   0  0  0  0  0  0  0  0  0  0  0  0
   -0.4460    1.3640   -1.0670 C   0  0  0  0  0  0  0  0  0  0  0  0
    0.9750    0.9410   -1.3840 C   0  0  0  0  0  0  0  0  0  0  0  0
    1.9870    1.4770   -0.5930 N   0  0  0  0  0  0  0  0  0  0  0  0
    3.3750    1.0790   -0.8290 C   0  0  0  0  0  0  0  0  0  0  0  0
    3.6850    0.4880    0.0410 H   0  0  0  0  0  0  0  0  0  0  0  0
    3.4570    0.4370   -1.7110 H   0  0  0  0  0  0  0  0  0  0  0  0
    4.2920    2.3000   -0.9850 C   0  0  0  0  0  0  0  0  0  0  0  0
    4.0540    2.8360   -1.9110 H   0  0  0  0  0  0  0  0  0  0  0  0
    5.3260    1.9550   -1.0470 H   0  0  0  0  0  0  0  0  0  0  0  0
    4.0980    3.2520    0.1210 N   0  0  0  0  0  0  0  0  0  0  0  0
    2.7050    3.6530    0.3480 C   0  0  0  0  0  0  0  0  0  0  0  0
    2.6170    4.3030    1.2240 H   0  0  0  0  0  0  0  0  0  0  0  0
    2.3990    4.2360   -0.5290 H   0  0  0  0  0  0  0  0  0  0  0  0
    1.7900    2.4330    0.5080 C   0  0  0  0  0  0  0  0  0  0  0  0
    0.7510    2.7570    0.5820 H   0  0  0  0  0  0  0  0  0  0  0  0
    2.0370    1.8980    1.4330 H   0  0  0  0  0  0  0  0  0  0  0  0
    5.0980    3.7690    0.9400 C   0  0  0  0  0  0  0  0  0  0  0  0
    6.5110    3.4910    0.6000 C   0  0  0  0  0  0  0  0  0  0  0  0
    7.2950    2.7770    1.5100 C   0  0  0  0  0  0  0  0  0  0  0  0
    6.8640    2.4150    2.4400 H   0  0  0  0  0  0  0  0  0  0  0  0
    8.6360    2.5320    1.2160 C   0  0  0  0  0  0  0  0  0  0  0  0
    9.2540    1.9740    1.9150 H   0  0  0  0  0  0  0  0  0  0  0  0
    9.1880    3.0100    0.0250 C   0  0  0  0  0  0  0  0  0  0  0  0
   10.2350    2.8200   -0.2000 H   0  0  0  0  0  0  0  0  0  0  0  0
    8.4060    3.7410   -0.8720 C   0  0  0  0  0  0  0  0  0  0  0  0
    8.8450    4.1200   -1.7910 H   0  0  0  0  0  0  0  0  0  0  0  0
    7.0640    3.9910   -0.5840 C   0  0  0  0  0  0  0  0  0  0  0  0
    6.4600    4.5730   -1.2750 H   0  0  0  0  0  0  0  0  0  0  0  0
   -0.8130    2.4310   -1.5480 O   0  0  0  0  0  0  0  0  0  0  0  0
    1.1340    0.1460   -2.3030 O   0  0  0  0  0  0  0  0  0  0  0  0
    4.8960    4.4460    1.9430 O   0  0  0  0  0  0  0  0  0  0  0  0
   -3.3780    2.8510   -0.7060 O   0  0  0  0  0  0  0  0  0  0  0  0
   -4.6800   -2.0210    2.6860 Br  0  0  0  0  0  0  0  0  0  0  0  0
   -2.9170    3.9400    0.0870 C   0  0  0  0  0  0  0  0  0  0  0  0
   -2.5420    4.9540   -0.7250 F   0  0  0  0  0  0  0  0  0  0  0  0
   -3.9100    4.3960    0.8850 F   0  0  0  0  0  0  0  0  0  0  0  0
   -1.8600    3.5990    0.8590 F   0  0  0  0  0  0  0  0  0  0  0  0
  1  2  1  0  0  0  0
  1  3  1  0  0  0  0
  1  8  2  0  0  0  0
  3  4  1  0  0  0  0
  3  5  2  0  0  0  0
  5  6  1  0  0  0  0
  5 46  1  0  0  0  0
  6  7  2  0  0  0  0
  6  9  1  0  0  0  0
  7  8  1  0  0  0  0
  7 13  1  0  0  0  0
  8 45  1  0  0  0  0
  9 10  1  0  0  0  0
  9 11  1  0  0  0  0
 11 12  1  0  0  0  0
 11 13  2  0  0  0  0
 13 14  1  0  0  0  0
 14 15  1  0  0  0  0
 14 42  2  0  0  0  0
 15 16  1  0  0  0  0
 15 43  2  0  0  0  0
 16 17  1  0  0  0  0
 16 27  1  0  0  0  0
 17 18  1  0  0  0  0
 17 19  1  0  0  0  0
 17 20  1  0  0  0  0
 20 21  1  0  0  0  0
 20 22  1  0  0  0  0
 20 23  1  0  0  0  0
 23 24  1  0  0  0  0
 23 30  1  0  0  0  0
 24 25  1  0  0  0  0
 24 26  1  0  0  0  0
 24 27  1  0  0  0  0
 27 28  1  0  0  0  0
 27 29  1  0  0  0  0
 30 31  1  0  0  0  0
 30 44  2  0  0  0  0
 31 32  1  0  0  0  0
 31 40  2  0  0  0  0
 32 33  1  0  0  0  0
 32 34  2  0  0  0  0
 34 35  1  0  0  0  0
 34 36  1  0  0  0  0
 36 37  1  0  0  0  0
 36 38  2  0  0  0  0
 38 39  1  0  0  0  0
 38 40  1  0  0  0  0
 40 41  1  0  0  0  0
 45 47  1  0  0  0  0
 47 48  1  0  0  0  0
 47 49  1  0  0  0  0
 47 50  1  0  0  0  0
M  END
>  <Activity>
7.3685

>  <AM1_dipole>
5.63361

>  <AM1_E>
-155908

>  <AM1_Eele>
-1.15952e+006

>  <AM1_HF>
-189.838

>  <AM1_HOMO>
-9.24273

>  <AM1_IP>
9.24273

>  <AM1_LUMO>
-1.07696

>  <diameter>
16

>  <petitjean>
0.5

>  <petitjeanSC>
1

>  <radius>
8

>  <VDistEq>
3.79991

>  <VDistMa>
9.78197

>  <weinerPath>
3400

>  <weinerPol>
55

>  <BCUT_PEOE_0>
-2.71188

>  <BCUT_PEOE_1>
-0.606862

>  <BCUT_PEOE_2>
0.609452

>  <BCUT_PEOE_3>
2.65031

>  <BCUT_SLOGP_0>
-2.86001

>  <BCUT_SLOGP_1>
-0.496846

>  <BCUT_SLOGP_2>
0.758608

>  <BCUT_SLOGP_3>
2.50451

>  <BCUT_SMR_0>
-2.43203

>  <BCUT_SMR_1>
-0.41007

>  <BCUT_SMR_2>
0.820636

>  <BCUT_SMR_3>
2.92029

>  <GCUT_PEOE_0>
-0.857233

>  <GCUT_PEOE_1>
-0.398782

>  <GCUT_PEOE_2>
0.0729116

>  <GCUT_PEOE_3>
2.6851

>  <GCUT_SLOGP_0>
-0.97651

>  <GCUT_SLOGP_1>
-0.325988

>  <GCUT_SLOGP_2>
0.25038

>  <GCUT_SLOGP_3>
2.69423

>  <GCUT_SMR_0>
-0.508944

>  <GCUT_SMR_1>
-0.204225

>  <GCUT_SMR_2>
0.219066

>  <GCUT_SMR_3>
2.95845

>  <a_aro>
15

>  <a_count>
50

>  <a_IC>
97.0887

>  <a_ICM>
1.94177

>  <a_nH>
17

>  <b_1rotN>
6

>  <b_1rotR>
0.166667

>  <b_ar>
16

>  <b_count>
53

>  <b_double>
3

>  <b_rotN>
7

>  <b_rotR>
0.194444

>  <b_single>
34

>  <b_triple>
0

>  <chi0v>
18.5725

>  <chi0v_C>
12.4472

>  <chi1v>
10.6804

>  <chi1v_C>
5.86004

>  <chiral>
0

>  <chiral_u>
0

>  <nmol>
1

>  <reactive>
0

>  <rings>
4

>  <Weight>
524.293

>  <a_heavy>
33

>  <a_nB>
0

>  <a_nBr>
1

>  <a_nC>
22

>  <a_nCl>
0

>  <a_nF>
3

>  <a_nI>
0

>  <a_nN>
3

>  <a_nO>
4

>  <a_nP>
0

>  <a_nS>
0

>  <b_heavy>
36

>  <chi0>
23.7503

>  <chi0_C>
14.1814

>  <chi1>
15.6537

>  <chi1_C>
7.87457

>  <FCharge>
0

>  <VAdjEq>
0.351258

>  <VAdjMa>
6.16993

>  <zagreb>
178

>  <balabanJ>
1.34912

>  <PEOE_PC+>
2.92753

>  <PEOE_PC->
-2.92753

>  <PEOE_RPC+>
0.180795

>  <PEOE_RPC->
0.122638

>  <PEOE_VSA+0>
76.1845

>  <PEOE_VSA+1>
85.6128

>  <PEOE_VSA+2>
0

>  <PEOE_VSA+3>
8.61901

>  <PEOE_VSA+4>
0

>  <PEOE_VSA+5>
34.3576

>  <PEOE_VSA+6>
15.2955

>  <PEOE_VSA-0>
92.6445

>  <PEOE_VSA-1>
36.7647

>  <PEOE_VSA-2>
35.7259

>  <PEOE_VSA-3>
0

>  <PEOE_VSA-4>
0

>  <PEOE_VSA-5>
43.2045

>  <PEOE_VSA-6>
0.136891

>  <PEOE_VSA_FHYD>
0.783

>  <PEOE_VSA_FNEG>
0.486474

>  <PEOE_VSA_FPNEG>
0.101136

>  <PEOE_VSA_FPOL>
0.217

>  <PEOE_VSA_FPOS>
0.513526

>  <PEOE_VSA_FPPOS>
0.115864

>  <PEOE_VSA_HYD>
335.551

>  <PEOE_VSA_NEG>
208.476

>  <PEOE_VSA_PNEG>
43.3414

>  <PEOE_VSA_POL>
92.9945

>  <PEOE_VSA_POS>
220.069

>  <PEOE_VSA_PPOS>
49.6531

>  <PC+>
6.112

>  <PC->
-6.114

>  <Q_PC+>
6.112

>  <Q_PC->
-6.114

>  <Q_RPC+>
0.212696

>  <Q_RPC->
0.107949

>  <Q_VSA_FHYD>
0.51763

>  <Q_VSA_FNEG>
0.546018

>  <Q_VSA_FPNEG>
0.223258

>  <Q_VSA_FPOL>
0.48237

>  <Q_VSA_FPOS>
0.453982

>  <Q_VSA_FPPOS>
0.259112

>  <Q_VSA_HYD>
221.828

>  <Q_VSA_NEG>
233.994

>  <Q_VSA_PNEG>
95.6763

>  <Q_VSA_POL>
206.718

>  <Q_VSA_POS>
194.552

>  <Q_VSA_PPOS>
111.041

>  <RPC+>
0.212696

>  <RPC->
0.107949

>  <lip_acc>
7

>  <lip_don>
1

>  <lip_druglike>
1

>  <lip_violation>
1

>  <opr_brigid>
22

>  <opr_leadlike>
1

>  <opr_nring>
4

>  <opr_nrot>
6

>  <opr_violation>
1

>  <E>
104.925

>  <E_ang>
11.7361

>  <E_ele>
27.2221

>  <E_nb>
76.7896

>  <E_oop>
0.0593045

>  <E_sol>
-17.5821

>  <E_stb>
0.309997

>  <E_str>
6.34167

>  <E_strain>
0.00510333

>  <E_tor>
9.68827

>  <E_vdw>
49.5675

>  <E_rele>
0

>  <E_rnb>
0

>  <E_rsol>
0

>  <E_rvdw>
0

>  <Kier1>
26.0741

>  <Kier2>
10.9477

>  <Kier3>
6.04915

>  <KierA1>
20.2198

>  <KierA2>
8.41791

>  <KierA3>
4.62266

>  <KierFlex>
5.15783

>  <logS>
-6.30931

>  <MNDO_dipole>
6.07771

>  <MNDO_E>
-155618

>  <MNDO_Eele>
-1.1492e+006

>  <MNDO_HF>
-202.699

>  <MNDO_HOMO>
-9.3199

>  <MNDO_IP>
9.3199

>  <MNDO_LUMO>
-1.20815

>  <apol>
61.2845

>  <bpol>
32.8935

>  <mr>
11.8053

>  <dipole>
1.0981

>  <dipoleX>
0.495333

>  <dipoleY>
-0.93849

>  <dipoleZ>
0.282308

>  <pmi>
13758.5

>  <pmiX>
10303

>  <pmiY>
2512.76

>  <pmiZ>
942.768

>  <rgyr>
5.1227

>  <a_acc>
4

>  <a_acid>
0

>  <a_base>
0

>  <a_don>
1

>  <a_hyd>
23

>  <vsa_acc>
43.2045

>  <vsa_acid>
0

>  <vsa_base>
0

>  <vsa_don>
5.68258

>  <vsa_hyd>
330.839

>  <vsa_other>
34.3576

>  <vsa_pol>
48.8871

>  <PM3_dipole>
6.16418

>  <PM3_E>
-143078

>  <PM3_Eele>
-1.14633e+006

>  <PM3_HF>
-220.893

>  <PM3_HOMO>
-9.23566

>  <PM3_IP>
9.23566

>  <PM3_LUMO>
-1.07997

>  <SlogP>
3.9963

>  <SlogP_VSA0>
10.9999

>  <SlogP_VSA1>
32.2712

>  <SlogP_VSA2>
40.6477

>  <SlogP_VSA3>
73.7583

>  <SlogP_VSA4>
54.0956

>  <SlogP_VSA5>
3.0551

>  <SlogP_VSA6>
0

>  <SlogP_VSA7>
145.434

>  <SlogP_VSA8>
0

>  <SlogP_VSA9>
96.0779

>  <SMR>
11.5938

>  <SMR_VSA0>
71.5866

>  <SMR_VSA1>
62.1289

>  <SMR_VSA2>
29.658

>  <SMR_VSA3>
11.6146

>  <SMR_VSA4>
4.7171

>  <SMR_VSA5>
140.717

>  <SMR_VSA6>
89.9635

>  <SMR_VSA7>
45.9541

>  <ASA>
698.261

>  <ASA+>
224.183

>  <ASA->
377.583

>  <ASA_H>
467.379

>  <ASA_P>
230.882

>  <CASA+>
1370.2

>  <CASA->
2308.54

>  <DASA>
153.4

>  <DCASA>
938.336

>  <FASA+>
0.321059

>  <FASA->
0.540747

>  <FASA_H>
0.669348

>  <FASA_P>
0.330652

>  <FCASA+>
1.96231

>  <FCASA->
3.30613

>  <VSA>
442.879

>  <TPSA>
82.71

>  <density>
0.937666

>  <vdw_area>
428.546

>  <vdw_vol>
559.147

>  <vsurf_A>
2.8688

>  <vsurf_CP>
0.101472

>  <vsurf_CW1>
2.61962

>  <vsurf_CW2>
2.16308

>  <vsurf_CW3>
1.377

>  <vsurf_CW4>
0.670706

>  <vsurf_CW5>
0.281512

>  <vsurf_CW6>
0.080259

>  <vsurf_CW7>
0.0121953

>  <vsurf_CW8>
0

>  <vsurf_D1>
957.625

>  <vsurf_D2>
556

>  <vsurf_D3>
407.5

>  <vsurf_D4>
340.125

>  <vsurf_D5>
292.625

>  <vsurf_D6>
241.125

>  <vsurf_D7>
143.625

>  <vsurf_D8>
73.25

>  <vsurf_DD12>
0.707107

>  <vsurf_DD13>
4.15331

>  <vsurf_DD23>
4.03113

>  <vsurf_DW12>
0.5

>  <vsurf_DW13>
0.707107

>  <vsurf_DW23>
0.866025

>  <vsurf_EDmin1>
-2.70813

>  <vsurf_EDmin2>
-2.5805

>  <vsurf_EDmin3>
-2.52481

>  <vsurf_EWmin1>
-5.79464

>  <vsurf_EWmin2>
-5.76981

>  <vsurf_EWmin3>
-5.49299

>  <vsurf_G>
1.37454

>  <vsurf_HB1>
381.5

>  <vsurf_HB2>
466.375

>  <vsurf_HB3>
392.5

>  <vsurf_HB4>
155.625

>  <vsurf_HB5>
52.375

>  <vsurf_HB6>
11.5

>  <vsurf_HB7>
2.375

>  <vsurf_HB8>
0

>  <vsurf_HL1>
0.141411

>  <vsurf_HL2>
0.0400588

>  <vsurf_ID1>
1.36446

>  <vsurf_ID2>
1.42166

>  <vsurf_ID3>
1.66459

>  <vsurf_ID4>
1.94968

>  <vsurf_ID5>
2.14975

>  <vsurf_ID6>
2.04653

>  <vsurf_ID7>
1.16051

>  <vsurf_ID8>
1.24531

>  <vsurf_IW1>
0.841514

>  <vsurf_IW2>
0.730797

>  <vsurf_IW3>
1.12268

>  <vsurf_IW4>
1.57499

>  <vsurf_IW5>
2.0252

>  <vsurf_IW6>
2.97267

>  <vsurf_IW7>
3.76901

>  <vsurf_IW8>
0

>  <vsurf_R>
1.47086

>  <vsurf_S>
635.429

>  <vsurf_V>
934.625

>  <vsurf_W1>
1519.75

>  <vsurf_W2>
924.875

>  <vsurf_W3>
475.375

>  <vsurf_W4>
169.5

>  <vsurf_W5>
57.625

>  <vsurf_W6>
13.625

>  <vsurf_W7>
2.375

>  <vsurf_W8>
0

>  <vsurf_Wp1>
1138.25

>  <vsurf_Wp2>
458.5

>  <vsurf_Wp3>
82.875

>  <vsurf_Wp4>
13.875

>  <vsurf_Wp5>
5.25

>  <vsurf_Wp6>
2.125

>  <vsurf_Wp7>
0

>  <vsurf_Wp8>
0

>  <dens>
1.29816

>  <glob>
0.0604227

>  <std_dim1>
4.65425

>  <std_dim2>
1.61145

>  <std_dim3>
1.14406

>  <vol>
403.875

>  <logP(o/w)>
4.27576

$$$$
D4.cdx
  MOE2008           3D

 46 49  0  0  0  0  0  0  0  0999 V2000
   -4.6640   -2.1540    0.5650 C   0  0  0  0  0  0  0  0  0  0  0  0
   -5.3720   -1.3370    0.4580 H   0  0  0  0  0  0  0  0  0  0  0  0
   -5.0120   -3.2970    1.2770 C   0  0  0  0  0  0  0  0  0  0  0  0
   -6.0020   -3.3610    1.7240 H   0  0  0  0  0  0  0  0  0  0  0  0
   -4.1060   -4.3520    1.4160 C   0  0  0  0  0  0  0  0  0  0  0  0
   -2.8430   -4.2250    0.8200 C   0  0  0  0  0  0  0  0  0  0  0  0
   -2.4580   -3.0880    0.0990 C   0  0  0  0  0  0  0  0  0  0  0  0
   -3.3990   -2.0420   -0.0210 C   0  0  0  0  0  0  0  0  0  0  0  0
   -1.7800   -5.0970    0.7990 N   0  0  0  0  0  0  0  0  0  0  0  0
   -1.7810   -6.0080    1.2410 H   0  0  0  0  0  0  0  0  0  0  0  0
   -0.7380   -4.5570    0.0990 C   0  0  0  0  0  0  0  0  0  0  0  0
    0.1820   -5.1170   -0.0170 H   0  0  0  0  0  0  0  0  0  0  0  0
   -1.1140   -3.3050   -0.3580 C   0  0  0  0  0  0  0  0  0  0  0  0
   -0.2610   -2.4180   -1.1430 C   0  0  0  0  0  0  0  0  0  0  0  0
    1.1350   -2.8680   -1.5270 C   0  0  0  0  0  0  0  0  0  0  0  0
    2.1830   -2.4410   -0.7170 N   0  0  0  0  0  0  0  0  0  0  0  0
    3.5500   -2.8710   -1.0130 C   0  0  0  0  0  0  0  0  0  0  0  0
    3.8500   -3.5460   -0.2020 H   0  0  0  0  0  0  0  0  0  0  0  0
    3.5910   -3.4390   -1.9480 H   0  0  0  0  0  0  0  0  0  0  0  0
    4.5160   -1.6800   -1.0830 C   0  0  0  0  0  0  0  0  0  0  0  0
    4.2920   -1.0630   -1.9610 H   0  0  0  0  0  0  0  0  0  0  0  0
    5.5340   -2.0600   -1.1840 H   0  0  0  0  0  0  0  0  0  0  0  0
    4.3710   -0.8100    0.0960 N   0  0  0  0  0  0  0  0  0  0  0  0
    2.9980   -0.3780    0.3760 C   0  0  0  0  0  0  0  0  0  0  0  0
    2.9460    0.2090    1.2990 H   0  0  0  0  0  0  0  0  0  0  0  0
    2.7000    0.2790   -0.4500 H   0  0  0  0  0  0  0  0  0  0  0  0
    2.0450   -1.5740    0.4630 C   0  0  0  0  0  0  0  0  0  0  0  0
    1.0190   -1.2210    0.5900 H   0  0  0  0  0  0  0  0  0  0  0  0
    2.2930   -2.1910    1.3360 H   0  0  0  0  0  0  0  0  0  0  0  0
    5.3990   -0.3950    0.9390 C   0  0  0  0  0  0  0  0  0  0  0  0
    6.7980   -0.6730    0.5500 C   0  0  0  0  0  0  0  0  0  0  0  0
    7.5960   -1.4420    1.4020 C   0  0  0  0  0  0  0  0  0  0  0  0
    7.1840   -1.8470    2.3230 H   0  0  0  0  0  0  0  0  0  0  0  0
    8.9260   -1.6870    1.0620 C   0  0  0  0  0  0  0  0  0  0  0  0
    9.5530   -2.2880    1.7160 H   0  0  0  0  0  0  0  0  0  0  0  0
    9.4550   -1.1550   -0.1160 C   0  0  0  0  0  0  0  0  0  0  0  0
   10.4940   -1.3450   -0.3770 H   0  0  0  0  0  0  0  0  0  0  0  0
    8.6610   -0.3680   -0.9530 C   0  0  0  0  0  0  0  0  0  0  0  0
    9.0830    0.0540   -1.8620 H   0  0  0  0  0  0  0  0  0  0  0  0
    7.3300   -0.1170   -0.6190 C   0  0  0  0  0  0  0  0  0  0  0  0
    6.7190    0.5090   -1.2630 H   0  0  0  0  0  0  0  0  0  0  0  0
   -0.5940   -1.2960   -1.5120 O   0  0  0  0  0  0  0  0  0  0  0  0
    1.2430   -3.5890   -2.5130 O   0  0  0  0  0  0  0  0  0  0  0  0
    5.2240    0.1930    2.0020 O   0  0  0  0  0  0  0  0  0  0  0  0
   -3.1220   -0.9160   -0.6940 F   0  0  0  0  0  0  0  0  0  0  0  0
   -4.6080   -5.8950    2.3880 Br  0  0  0  0  0  0  0  0  0  0  0  0
  1  2  1  0  0  0  0
  1  3  1  0  0  0  0
  1  8  2  0  0  0  0
  3  4  1  0  0  0  0
  3  5  2  0  0  0  0
  5  6  1  0  0  0  0
  5 46  1  0  0  0  0
  6  7  2  0  0  0  0
  6  9  1  0  0  0  0
  7  8  1  0  0  0  0
  7 13  1  0  0  0  0
  8 45  1  0  0  0  0
  9 10  1  0  0  0  0
  9 11  1  0  0  0  0
 11 12  1  0  0  0  0
 11 13  2  0  0  0  0
 13 14  1  0  0  0  0
 14 15  1  0  0  0  0
 14 42  2  0  0  0  0
 15 16  1  0  0  0  0
 15 43  2  0  0  0  0
 16 17  1  0  0  0  0
 16 27  1  0  0  0  0
 17 18  1  0  0  0  0
 17 19  1  0  0  0  0
 17 20  1  0  0  0  0
 20 21  1  0  0  0  0
 20 22  1  0  0  0  0
 20 23  1  0  0  0  0
 23 24  1  0  0  0  0
 23 30  1  0  0  0  0
 24 25  1  0  0  0  0
 24 26  1  0  0  0  0
 24 27  1  0  0  0  0
 27 28  1  0  0  0  0
 27 29  1  0  0  0  0
 30 31  1  0  0  0  0
 30 44  2  0  0  0  0
 31 32  1  0  0  0  0
 31 40  2  0  0  0  0
 32 33  1  0  0  0  0
 32 34  2  0  0  0  0
 34 35  1  0  0  0  0
 34 36  1  0  0  0  0
 36 37  1  0  0  0  0
 36 38  2  0  0  0  0
 38 39  1  0  0  0  0
 38 40  1  0  0  0  0
 40 41  1  0  0  0  0
M  END
>  <Activity>
9.886

>  <AM1_dipole>
4.50385

>  <AM1_E>
-123166

>  <AM1_Eele>
-886583

>  <AM1_HF>
-35.2849

>  <AM1_HOMO>
-9.00292

>  <AM1_IP>
9.00292

>  <AM1_LUMO>
-0.86879

>  <diameter>
15

>  <petitjean>
0.466667

>  <petitjeanSC>
0.875

>  <radius>
8

>  <VDistEq>
3.69068

>  <VDistMa>
9.39588

>  <weinerPath>
2420

>  <weinerPol>
50

>  <BCUT_PEOE_0>
-2.71188

>  <BCUT_PEOE_1>
-0.639784

>  <BCUT_PEOE_2>
0.635926

>  <BCUT_PEOE_3>
2.65029

>  <BCUT_SLOGP_0>
-2.86001

>  <BCUT_SLOGP_1>
-0.53808

>  <BCUT_SLOGP_2>
0.805915

>  <BCUT_SLOGP_3>
2.50347

>  <BCUT_SMR_0>
-2.43203

>  <BCUT_SMR_1>
-0.423914

>  <BCUT_SMR_2>
0.854311

>  <BCUT_SMR_3>
2.92025

>  <GCUT_PEOE_0>
-0.857151

>  <GCUT_PEOE_1>
-0.403743

>  <GCUT_PEOE_2>
0.080099

>  <GCUT_PEOE_3>
2.65275

>  <GCUT_SLOGP_0>
-0.976487

>  <GCUT_SLOGP_1>
-0.305011

>  <GCUT_SLOGP_2>
0.218152

>  <GCUT_SLOGP_3>
2.63926

>  <GCUT_SMR_0>
-0.508912

>  <GCUT_SMR_1>
-0.216057

>  <GCUT_SMR_2>
0.23209

>  <GCUT_SMR_3>
2.92591

>  <a_aro>
15

>  <a_count>
46

>  <a_IC>
82.8485

>  <a_ICM>
1.80106

>  <a_nH>
17

>  <b_1rotN>
5

>  <b_1rotR>
0.15625

>  <b_ar>
16

>  <b_count>
49

>  <b_double>
3

>  <b_rotN>
5

>  <b_rotR>
0.15625

>  <b_single>
30

>  <b_triple>
0

>  <chi0v>
16.9083

>  <chi0v_C>
11.9472

>  <chi1v>
9.89418

>  <chi1v_C>
5.86004

>  <chiral>
0

>  <chiral_u>
0

>  <nmol>
1

>  <reactive>
0

>  <rings>
4

>  <Weight>
458.287

>  <a_heavy>
29

>  <a_nB>
0

>  <a_nBr>
1

>  <a_nC>
21

>  <a_nCl>
0

>  <a_nF>
1

>  <a_nI>
0

>  <a_nN>
3

>  <a_nO>
3

>  <a_nP>
0

>  <a_nS>
0

>  <b_heavy>
32

>  <chi0>
20.5432

>  <chi0_C>
13.6814

>  <chi1>
13.9692

>  <chi1_C>
7.87457

>  <FCharge>
0

>  <VAdjEq>
0.388286

>  <VAdjMa>
6

>  <zagreb>
156

>  <balabanJ>
1.30569

>  <PEOE_PC+>
2.44214

>  <PEOE_PC->
-2.44214

>  <PEOE_RPC+>
0.120837

>  <PEOE_RPC->
0.147011

>  <PEOE_VSA+0>
76.1845

>  <PEOE_VSA+1>
77.1543

>  <PEOE_VSA+2>
9.02085

>  <PEOE_VSA+3>
8.61901

>  <PEOE_VSA+4>
0

>  <PEOE_VSA+5>
34.3576

>  <PEOE_VSA+6>
0

>  <PEOE_VSA-0>
92.6445

>  <PEOE_VSA-1>
36.7647

>  <PEOE_VSA-2>
0

>  <PEOE_VSA-3>
0

>  <PEOE_VSA-4>
11.9086

>  <PEOE_VSA-5>
40.7008

>  <PEOE_VSA-6>
0.136891

>  <PEOE_VSA_FHYD>
0.775211

>  <PEOE_VSA_FNEG>
0.470089

>  <PEOE_VSA_FPNEG>
0.136122

>  <PEOE_VSA_FPOL>
0.224789

>  <PEOE_VSA_FPOS>
0.529911

>  <PEOE_VSA_FPPOS>
0.0886666

>  <PEOE_VSA_HYD>
300.388

>  <PEOE_VSA_NEG>
182.155

>  <PEOE_VSA_PNEG>
52.7463

>  <PEOE_VSA_POL>
87.1039

>  <PEOE_VSA_POS>
205.336

>  <PEOE_VSA_PPOS>
34.3576

>  <PC+>
4.92

>  <PC->
-4.921

>  <Q_PC+>
4.92

>  <Q_PC->
-4.921

>  <Q_RPC+>
0.133333

>  <Q_RPC->
0.134119

>  <Q_VSA_FHYD>
0.604656

>  <Q_VSA_FNEG>
0.535941

>  <Q_VSA_FPNEG>
0.148253

>  <Q_VSA_FPOL>
0.395344

>  <Q_VSA_FPOS>
0.464059

>  <Q_VSA_FPPOS>
0.247091

>  <Q_VSA_HYD>
234.299

>  <Q_VSA_NEG>
207.673

>  <Q_VSA_PNEG>
57.4467

>  <Q_VSA_POL>
153.193

>  <Q_VSA_POS>
179.819

>  <Q_VSA_PPOS>
95.7459

>  <RPC+>
0.133333

>  <RPC->
0.134119

>  <lip_acc>
6

>  <lip_don>
1

>  <lip_druglike>
1

>  <lip_violation>
0

>  <opr_brigid>
22

>  <opr_leadlike>
1

>  <opr_nring>
4

>  <opr_nrot>
5

>  <opr_violation>
1

>  <E>
94.7143

>  <E_ang>
8.14237

>  <E_ele>
32.824

>  <E_nb>
78.402

>  <E_oop>
0.0339155

>  <E_sol>
-21.2555

>  <E_stb>
0.361517

>  <E_str>
5.94335

>  <E_strain>
0.00510639

>  <E_tor>
1.83118

>  <E_vdw>
45.578

>  <E_rele>
0

>  <E_rnb>
0

>  <E_rsol>
0

>  <E_rvdw>
0

>  <Kier1>
22.2031

>  <Kier2>
9.6465

>  <Kier3>
4.62109

>  <KierA1>
16.8094

>  <KierA2>
7.22541

>  <KierA3>
3.43406

>  <KierFlex>
4.18809

>  <logS>
-5.41496

>  <MNDO_dipole>
4.86193

>  <MNDO_E>
-123109

>  <MNDO_Eele>
-877091

>  <MNDO_HF>
-56.8027

>  <MNDO_HOMO>
-9.08899

>  <MNDO_IP>
9.08899

>  <MNDO_LUMO>
-0.9441

>  <apol>
57.6085

>  <bpol>
28.5715

>  <mr>
11.1082

>  <dipole>
1.15232

>  <dipoleX>
0.472306

>  <dipoleY>
-1.00652

>  <dipoleZ>
0.302817

>  <pmi>
12532.1

>  <pmiX>
9902.75

>  <pmiY>
1783.77

>  <pmiZ>
845.619

>  <rgyr>
5.2293

>  <a_acc>
3

>  <a_acid>
0

>  <a_base>
0

>  <a_don>
1

>  <a_hyd>
20

>  <vsa_acc>
40.7008

>  <vsa_acid>
0

>  <vsa_base>
0

>  <vsa_don>
5.68258

>  <vsa_hyd>
292.289

>  <vsa_other>
34.3576

>  <vsa_pol>
46.3833

>  <PM3_dipole>
5.17274

>  <PM3_E>
-113236

>  <PM3_Eele>
-873300

>  <PM3_HF>
-66.8775

>  <PM3_HOMO>
-9.04542

>  <PM3_IP>
9.04542

>  <PM3_LUMO>
-0.87745

>  <SlogP>
3.2368

>  <SlogP_VSA0>
0

>  <SlogP_VSA1>
22.4538

>  <SlogP_VSA2>
49.7688

>  <SlogP_VSA3>
73.7583

>  <SlogP_VSA4>
54.0956

>  <SlogP_VSA5>
3.0551

>  <SlogP_VSA6>
0

>  <SlogP_VSA7>
145.434

>  <SlogP_VSA8>
0

>  <SlogP_VSA9>
60.9142

>  <SMR>
10.9213

>  <SMR_VSA0>
71.5866

>  <SMR_VSA1>
21.2087

>  <SMR_VSA2>
28.9617

>  <SMR_VSA3>
6.37115

>  <SMR_VSA4>
4.7171

>  <SMR_VSA5>
140.717

>  <SMR_VSA6>
89.9635

>  <SMR_VSA7>
45.9541

>  <ASA>
657.048

>  <ASA+>
225.597

>  <ASA->
324.725

>  <ASA_H>
512.925

>  <ASA_P>
144.123

>  <CASA+>
1109.94

>  <CASA->
1597.97

>  <DASA>
99.1277

>  <DCASA>
488.033

>  <FASA+>
0.343349

>  <FASA->
0.494217

>  <FASA_H>
0.78065

>  <FASA_P>
0.21935

>  <FCASA+>
1.68928

>  <FCASA->
2.43204

>  <VSA>
404.52

>  <TPSA>
73.48

>  <density>
0.885114

>  <vdw_area>
387.492

>  <vdw_vol>
517.772

>  <vsurf_A>
2.23068

>  <vsurf_CP>
0.125073

>  <vsurf_CW1>
2.65296

>  <vsurf_CW2>
2.1469

>  <vsurf_CW3>
1.28696

>  <vsurf_CW4>
0.596179

>  <vsurf_CW5>
0.243475

>  <vsurf_CW6>
0.0665089

>  <vsurf_CW7>
0.00698752

>  <vsurf_CW8>
0

>  <vsurf_D1>
959.875

>  <vsurf_D2>
562.625

>  <vsurf_D3>
413.5

>  <vsurf_D4>
351.625

>  <vsurf_D5>
302.75

>  <vsurf_D6>
250.375

>  <vsurf_D7>
150.125

>  <vsurf_D8>
80.875

>  <vsurf_DD12>
0.5

>  <vsurf_DD13>
0.707107

>  <vsurf_DD23>
0.5

>  <vsurf_DW12>
0.5

>  <vsurf_DW13>
0.707107

>  <vsurf_DW23>
1.11803

>  <vsurf_EDmin1>
-2.73212

>  <vsurf_EDmin2>
-2.70595

>  <vsurf_EDmin3>
-2.68157

>  <vsurf_EWmin1>
-5.58523

>  <vsurf_EWmin2>
-5.30882

>  <vsurf_EWmin3>
-5.28239

>  <vsurf_G>
1.36298

>  <vsurf_HB1>
325

>  <vsurf_HB2>
381.875

>  <vsurf_HB3>
323.75

>  <vsurf_HB4>
124.5

>  <vsurf_HB5>
40.125

>  <vsurf_HB6>
9.25

>  <vsurf_HB7>
1.375

>  <vsurf_HB8>
0

>  <vsurf_HL1>
0.110036

>  <vsurf_HL2>
0.0298614

>  <vsurf_ID1>
0.975619

>  <vsurf_ID2>
0.962166

>  <vsurf_ID3>
1.22506

>  <vsurf_ID4>
1.39066

>  <vsurf_ID5>
1.50453

>  <vsurf_ID6>
1.36165

>  <vsurf_ID7>
0.549493

>  <vsurf_ID8>
0.647974

>  <vsurf_IW1>
0.763577

>  <vsurf_IW2>
0.771569

>  <vsurf_IW3>
1.18747

>  <vsurf_IW4>
1.77276

>  <vsurf_IW5>
1.92434

>  <vsurf_IW6>
2.54631

>  <vsurf_IW7>
3.83422

>  <vsurf_IW8>
0

>  <vsurf_R>
1.44707

>  <vsurf_S>
599.659

>  <vsurf_V>
867.75

>  <vsurf_W1>
1443

>  <vsurf_W2>
837.5

>  <vsurf_W3>
407.25

>  <vsurf_W4>
138.375

>  <vsurf_W5>
45.5

>  <vsurf_W6>
10.5

>  <vsurf_W7>
1.375

>  <vsurf_W8>
0

>  <vsurf_Wp1>
1118

>  <vsurf_Wp2>
455.625

>  <vsurf_Wp3>
83.5

>  <vsurf_Wp4>
13.875

>  <vsurf_Wp5>
5.375

>  <vsurf_Wp6>
1.25

>  <vsurf_Wp7>
0

>  <vsurf_Wp8>
0

>  <dens>
1.22496

>  <glob>
0.0610247

>  <std_dim1>
4.71059

>  <std_dim2>
1.36768

>  <std_dim3>
1.16366

>  <vol>
374.125

>  <logP(o/w)>
3.03

$$$$
D4.cdx
  MOE2008           3D

 49 52  0  0  0  0  0  0  0  0999 V2000
   -4.6330   -6.5190    0.1880 C   0  0  0  0  0  0  0  0  0  0  0  0
   -5.4770   -5.8430    0.0890 H   0  0  0  0  0  0  0  0  0  0  0  0
   -4.7390   -7.6670    0.9650 C   0  0  0  0  0  0  0  0  0  0  0  0
   -5.6820   -7.8740    1.4690 H   0  0  0  0  0  0  0  0  0  0  0  0
   -3.6640   -8.5620    1.1130 C   0  0  0  0  0  0  0  0  0  0  0  0
   -2.4740   -8.2360    0.4290 C   0  0  0  0  0  0  0  0  0  0  0  0
   -2.3300   -7.0890   -0.3630 C   0  0  0  0  0  0  0  0  0  0  0  0
   -3.4410   -6.2250   -0.4730 C   0  0  0  0  0  0  0  0  0  0  0  0
   -1.2750   -8.9100    0.3730 N   0  0  0  0  0  0  0  0  0  0  0  0
   -1.0860   -9.7830    0.8460 H   0  0  0  0  0  0  0  0  0  0  0  0
   -0.3810   -8.2350   -0.4100 C   0  0  0  0  0  0  0  0  0  0  0  0
    0.6140   -8.6340   -0.5610 H   0  0  0  0  0  0  0  0  0  0  0  0
   -0.9960   -7.0950   -0.8980 C   0  0  0  0  0  0  0  0  0  0  0  0
   -0.3630   -6.1250   -1.7860 C   0  0  0  0  0  0  0  0  0  0  0  0
    1.0710   -6.3400   -2.2360 C   0  0  0  0  0  0  0  0  0  0  0  0
    2.0640   -5.6380   -1.5540 N   0  0  0  0  0  0  0  0  0  0  0  0
    3.4630   -5.8560   -1.9220 C   0  0  0  0  0  0  0  0  0  0  0  0
    3.5890   -6.8570   -2.3480 H   0  0  0  0  0  0  0  0  0  0  0  0
    3.6980   -5.1300   -2.7090 H   0  0  0  0  0  0  0  0  0  0  0  0
    4.4100   -5.6670   -0.7320 C   0  0  0  0  0  0  0  0  0  0  0  0
    5.4460   -5.7930   -1.0600 H   0  0  0  0  0  0  0  0  0  0  0  0
    4.1960   -6.4250    0.0300 H   0  0  0  0  0  0  0  0  0  0  0  0
    4.2460   -4.3550   -0.0870 N   0  0  0  0  0  0  0  0  0  0  0  0
    2.9530   -3.6890   -0.2680 C   0  0  0  0  0  0  0  0  0  0  0  0
    2.7430   -3.0410    0.5890 H   0  0  0  0  0  0  0  0  0  0  0  0
    3.0560   -3.0440   -1.1500 H   0  0  0  0  0  0  0  0  0  0  0  0
    1.8000   -4.6760   -0.4760 C   0  0  0  0  0  0  0  0  0  0  0  0
    0.8760   -4.1280   -0.6780 H   0  0  0  0  0  0  0  0  0  0  0  0
    1.6430   -5.2670    0.4350 H   0  0  0  0  0  0  0  0  0  0  0  0
    5.2320   -3.6970    0.6480 C   0  0  0  0  0  0  0  0  0  0  0  0
    6.4910   -4.4140    0.9510 C   0  0  0  0  0  0  0  0  0  0  0  0
    6.4760   -5.5880    1.7120 C   0  0  0  0  0  0  0  0  0  0  0  0
    5.5420   -5.9960    2.0870 H   0  0  0  0  0  0  0  0  0  0  0  0
    7.6780   -6.2330    2.0030 C   0  0  0  0  0  0  0  0  0  0  0  0
    7.6780   -7.1480    2.5900 H   0  0  0  0  0  0  0  0  0  0  0  0
    8.8860   -5.6980    1.5490 C   0  0  0  0  0  0  0  0  0  0  0  0
    9.8220   -6.2010    1.7800 H   0  0  0  0  0  0  0  0  0  0  0  0
    8.8980   -4.5130    0.8120 C   0  0  0  0  0  0  0  0  0  0  0  0
    9.8420   -4.0940    0.4730 H   0  0  0  0  0  0  0  0  0  0  0  0
    7.7000   -3.8630    0.5160 C   0  0  0  0  0  0  0  0  0  0  0  0
    7.7100   -2.9340   -0.0480 H   0  0  0  0  0  0  0  0  0  0  0  0
   -0.9220   -5.1170   -2.2090 O   0  0  0  0  0  0  0  0  0  0  0  0
    1.2640   -7.1310   -3.1540 O   0  0  0  0  0  0  0  0  0  0  0  0
    5.1280   -2.5450    1.0580 O   0  0  0  0  0  0  0  0  0  0  0  0
   -3.3940   -5.1040   -1.2050 F   0  0  0  0  0  0  0  0  0  0  0  0
   -3.8470   -9.7890    1.9610 C   0  0  0  0  0  0  0  0  0  0  0  0
   -4.1570   -9.5040    2.9710 H   0  0  0  0  0  0  0  0  0  0  0  0
   -2.9240  -10.3680    2.0460 H   0  0  0  0  0  0  0  0  0  0  0  0
   -4.6130  -10.4350    1.5210 H   0  0  0  0  0  0  0  0  0  0  0  0
  1  2  1  0  0  0  0
  1  3  1  0  0  0  0
  1  8  2  0  0  0  0
  3  4  1  0  0  0  0
  3  5  2  0  0  0  0
  5  6  1  0  0  0  0
  5 46  1  0  0  0  0
  6  7  2  0  0  0  0
  6  9  1  0  0  0  0
  7  8  1  0  0  0  0
  7 13  1  0  0  0  0
  8 45  1  0  0  0  0
  9 10  1  0  0  0  0
  9 11  1  0  0  0  0
 11 12  1  0  0  0  0
 11 13  2  0  0  0  0
 13 14  1  0  0  0  0
 14 15  1  0  0  0  0
 14 42  2  0  0  0  0
 15 16  1  0  0  0  0
 15 43  2  0  0  0  0
 16 17  1  0  0  0  0
 16 27  1  0  0  0  0
 17 18  1  0  0  0  0
 17 19  1  0  0  0  0
 17 20  1  0  0  0  0
 20 21  1  0  0  0  0
 20 22  1  0  0  0  0
 20 23  1  0  0  0  0
 23 24  1  0  0  0  0
 23 30  1  0  0  0  0
 24 25  1  0  0  0  0
 24 26  1  0  0  0  0
 24 27  1  0  0  0  0
 27 28  1  0  0  0  0
 27 29  1  0  0  0  0
 30 31  1  0  0  0  0
 30 44  2  0  0  0  0
 31 32  1  0  0  0  0
 31 40  2  0  0  0  0
 32 33  1  0  0  0  0
 32 34  2  0  0  0  0
 34 35  1  0  0  0  0
 34 36  1  0  0  0  0
 36 37  1  0  0  0  0
 36 38  2  0  0  0  0
 38 39  1  0  0  0  0
 38 40  1  0  0  0  0
 40 41  1  0  0  0  0
 46 47  1  0  0  0  0
 46 48  1  0  0  0  0
 46 49  1  0  0  0  0
M  END
>  <Activity>
9.2518

>  <AM1_dipole>
6.80535

>  <AM1_E>
-118928

>  <AM1_Eele>
-885723

>  <AM1_HF>
-46.272

>  <AM1_HOMO>
-8.7343

>  <AM1_IP>
8.7343

>  <AM1_LUMO>
-0.60412

>  <diameter>
15

>  <petitjean>
0.466667

>  <petitjeanSC>
0.875

>  <radius>
8

>  <VDistEq>
3.69068

>  <VDistMa>
9.39588

>  <weinerPath>
2420

>  <weinerPol>
50

>  <BCUT_PEOE_0>
-2.71188

>  <BCUT_PEOE_1>
-0.637036

>  <BCUT_PEOE_2>
0.592933

>  <BCUT_PEOE_3>
2.6503

>  <BCUT_SLOGP_0>
-2.86001

>  <BCUT_SLOGP_1>
-0.53808

>  <BCUT_SLOGP_2>
0.749658

>  <BCUT_SLOGP_3>
2.5037

>  <BCUT_SMR_0>
-2.43203

>  <BCUT_SMR_1>
-0.419053

>  <BCUT_SMR_2>
0.778537

>  <BCUT_SMR_3>
2.92027

>  <GCUT_PEOE_0>
-0.85945

>  <GCUT_PEOE_1>
-0.403743

>  <GCUT_PEOE_2>
0.0743278

>  <GCUT_PEOE_3>
2.68082

>  <GCUT_SLOGP_0>
-0.976492

>  <GCUT_SLOGP_1>
-0.303803

>  <GCUT_SLOGP_2>
0.164454

>  <GCUT_SLOGP_3>
2.67155

>  <GCUT_SMR_0>
-0.508936

>  <GCUT_SMR_1>
-0.216057

>  <GCUT_SMR_2>
0.193051

>  <GCUT_SMR_3>
2.95126

>  <a_aro>
15

>  <a_count>
49

>  <a_IC>
81.0649

>  <a_ICM>
1.65439

>  <a_nH>
20

>  <b_1rotN>
5

>  <b_1rotR>
0.15625

>  <b_ar>
16

>  <b_count>
52

>  <b_double>
3

>  <b_rotN>
5

>  <b_rotR>
0.15625

>  <b_single>
33

>  <b_triple>
0

>  <chi0v>
15.9444

>  <chi0v_C>
12.9472

>  <chi1v>
9.4122

>  <chi1v_C>
6.36004

>  <chiral>
0

>  <chiral_u>
0

>  <nmol>
1

>  <reactive>
0

>  <rings>
4

>  <Weight>
393.418

>  <a_heavy>
29

>  <a_nB>
0

>  <a_nBr>
0

>  <a_nC>
22

>  <a_nCl>
0

>  <a_nF>
1

>  <a_nI>
0

>  <a_nN>
3

>  <a_nO>
3

>  <a_nP>
0

>  <a_nS>
0

>  <b_heavy>
32

>  <chi0>
20.5432

>  <chi0_C>
14.6814

>  <chi1>
13.9692

>  <chi1_C>
8.45193

>  <FCharge>
0

>  <VAdjEq>
0.388286

>  <VAdjMa>
6

>  <zagreb>
156

>  <balabanJ>
1.30569

>  <PEOE_PC+>
2.47068

>  <PEOE_PC->
-2.47068

>  <PEOE_RPC+>
0.119441

>  <PEOE_RPC->
0.145575

>  <PEOE_VSA+0>
86.7285

>  <PEOE_VSA+1>
77.1543

>  <PEOE_VSA+2>
9.02085

>  <PEOE_VSA+3>
8.61901

>  <PEOE_VSA+4>
0

>  <PEOE_VSA+5>
34.3576

>  <PEOE_VSA+6>
0

>  <PEOE_VSA-0>
57.7209

>  <PEOE_VSA-1>
49.0196

>  <PEOE_VSA-2>
0

>  <PEOE_VSA-3>
0

>  <PEOE_VSA-4>
11.9086

>  <PEOE_VSA-5>
40.7008

>  <PEOE_VSA-6>
0.136891

>  <PEOE_VSA_FHYD>
0.76795

>  <PEOE_VSA_FNEG>
0.424882

>  <PEOE_VSA_FPNEG>
0.140519

>  <PEOE_VSA_FPOL>
0.23205

>  <PEOE_VSA_FPOS>
0.575118

>  <PEOE_VSA_FPPOS>
0.0915306

>  <PEOE_VSA_HYD>
288.263

>  <PEOE_VSA_NEG>
159.487

>  <PEOE_VSA_PNEG>
52.7463

>  <PEOE_VSA_POL>
87.1039

>  <PEOE_VSA_POS>
215.88

>  <PEOE_VSA_PPOS>
34.3576

>  <PC+>
4.953

>  <PC->
-4.954

>  <Q_PC+>
4.953

>  <Q_PC->
-4.954

>  <Q_RPC+>
0.132445

>  <Q_RPC->
0.133226

>  <Q_VSA_FHYD>
0.591886

>  <Q_VSA_FNEG>
0.442917

>  <Q_VSA_FPNEG>
0.153041

>  <Q_VSA_FPOL>
0.408114

>  <Q_VSA_FPOS>
0.557083

>  <Q_VSA_FPPOS>
0.255073

>  <Q_VSA_HYD>
222.174

>  <Q_VSA_NEG>
166.256

>  <Q_VSA_PNEG>
57.4467

>  <Q_VSA_POL>
153.193

>  <Q_VSA_POS>
209.111

>  <Q_VSA_PPOS>
95.7459

>  <RPC+>
0.132445

>  <RPC->
0.133226

>  <lip_acc>
6

>  <lip_don>
1

>  <lip_druglike>
1

>  <lip_violation>
0

>  <opr_brigid>
22

>  <opr_leadlike>
1

>  <opr_nring>
4

>  <opr_nrot>
5

>  <opr_violation>
0

>  <E>
97.9757

>  <E_ang>
7.19686

>  <E_ele>
33.1269

>  <E_nb>
80.0868

>  <E_oop>
0.0483054

>  <E_sol>
-20.0074

>  <E_stb>
0.332501

>  <E_str>
6.43334

>  <E_strain>
0.00633233

>  <E_tor>
3.87785

>  <E_vdw>
46.96

>  <E_rele>
0

>  <E_rnb>
-8.52651e-014

>  <E_rsol>
-8.52651e-014

>  <E_rvdw>
0

>  <Kier1>
22.2031

>  <Kier2>
9.6465

>  <Kier3>
4.62109

>  <KierA1>
15.3324

>  <KierA2>
6.56574

>  <KierA3>
3.11181

>  <KierFlex>
3.47132

>  <logS>
-4.48504

>  <MNDO_dipole>
7.73085

>  <MNDO_E>
-119027

>  <MNDO_Eele>
-879899

>  <MNDO_HF>
-62.6519

>  <MNDO_HOMO>
-8.88764

>  <MNDO_IP>
8.88764

>  <MNDO_LUMO>
-0.74427

>  <apol>
58.3189

>  <bpol>
30.5611

>  <mr>
10.8081

>  <dipole>
1.98931

>  <dipoleX>
0.521488

>  <dipoleY>
-1.62053

>  <dipoleZ>
1.02922

>  <pmi>
8979.32

>  <pmiX>
7021.33

>  <pmiY>
1216.54

>  <pmiZ>
741.455

>  <rgyr>
4.77743

>  <a_acc>
3

>  <a_acid>
0

>  <a_base>
0

>  <a_don>
1

>  <a_hyd>
20

>  <vsa_acc>
40.7008

>  <vsa_acid>
0

>  <vsa_base>
0

>  <vsa_don>
5.68258

>  <vsa_hyd>
278.029

>  <vsa_other>
34.3576

>  <vsa_pol>
46.3833

>  <PM3_dipole>
7.45639

>  <PM3_E>
-108890

>  <PM3_Eele>
-867280

>  <PM3_HF>
-81.0479

>  <PM3_HOMO>
-8.79465

>  <PM3_IP>
8.79465

>  <PM3_LUMO>
-0.68269

>  <SlogP>
2.78272

>  <SlogP_VSA0>
0

>  <SlogP_VSA1>
22.4538

>  <SlogP_VSA2>
49.7688

>  <SlogP_VSA3>
73.7583

>  <SlogP_VSA4>
57.2812

>  <SlogP_VSA5>
0

>  <SlogP_VSA6>
0

>  <SlogP_VSA7>
145.434

>  <SlogP_VSA8>
0

>  <SlogP_VSA9>
48.2861

>  <SMR>
10.625

>  <SMR_VSA0>
71.5866

>  <SMR_VSA1>
21.2087

>  <SMR_VSA2>
25.9065

>  <SMR_VSA3>
9.55672

>  <SMR_VSA4>
4.7171

>  <SMR_VSA5>
140.717

>  <SMR_VSA6>
89.9635

>  <SMR_VSA7>
33.326

>  <ASA>
643.129

>  <ASA+>
245.829

>  <ASA->
238.716

>  <ASA_H>
497.055

>  <ASA_P>
146.075

>  <CASA+>
1217.59

>  <CASA->
1182.6

>  <DASA>
7.11312

>  <DCASA>
34.9926

>  <FASA+>
0.382239

>  <FASA->
0.371179

>  <FASA_H>
0.772869

>  <FASA_P>
0.227131

>  <FCASA+>
1.89323

>  <FCASA->
1.83882

>  <VSA>
399.853

>  <TPSA>
73.48

>  <density>
0.766578

>  <vdw_area>
375.367

>  <vdw_vol>
513.213

>  <vsurf_A>
3.4901

>  <vsurf_CP>
0.127752

>  <vsurf_CW1>
2.64193

>  <vsurf_CW2>
2.06833

>  <vsurf_CW3>
1.31029

>  <vsurf_CW4>
0.601701

>  <vsurf_CW5>
0.247066

>  <vsurf_CW6>
0.0703745

>  <vsurf_CW7>
0.00586961

>  <vsurf_CW8>
0

>  <vsurf_D1>
891.125

>  <vsurf_D2>
526.125

>  <vsurf_D3>
401.125

>  <vsurf_D4>
345.125

>  <vsurf_D5>
296.625

>  <vsurf_D6>
230.5

>  <vsurf_D7>
135.25

>  <vsurf_D8>
75

>  <vsurf_DD12>
3.20156

>  <vsurf_DD13>
3

>  <vsurf_DD23>
0.5

>  <vsurf_DW12>
0.707107

>  <vsurf_DW13>
0.5

>  <vsurf_DW23>
0.866025

>  <vsurf_EDmin1>
-2.72706

>  <vsurf_EDmin2>
-2.70469

>  <vsurf_EDmin3>
-2.61634

>  <vsurf_EWmin1>
-5.42721

>  <vsurf_EWmin2>
-5.29667

>  <vsurf_EWmin3>
-5.28976

>  <vsurf_G>
1.35818

>  <vsurf_HB1>
321.125

>  <vsurf_HB2>
376.125

>  <vsurf_HB3>
325.875

>  <vsurf_HB4>
125.5

>  <vsurf_HB5>
39

>  <vsurf_HB6>
10

>  <vsurf_HB7>
1

>  <vsurf_HB8>
0

>  <vsurf_HL1>
0.111561

>  <vsurf_HL2>
0.0325969

>  <vsurf_ID1>
1.29646

>  <vsurf_ID2>
1.33823

>  <vsurf_ID3>
1.42862

>  <vsurf_ID4>
1.5943

>  <vsurf_ID5>
1.74782

>  <vsurf_ID6>
1.67013

>  <vsurf_ID7>
1.21139

>  <vsurf_ID8>
1.06686

>  <vsurf_IW1>
0.209971

>  <vsurf_IW2>
0.767854

>  <vsurf_IW3>
1.44463

>  <vsurf_IW4>
2.09811

>  <vsurf_IW5>
2.09546

>  <vsurf_IW6>
2.55605

>  <vsurf_IW7>
4.03967

>  <vsurf_IW8>
0

>  <vsurf_R>
1.44201

>  <vsurf_S>
589.194

>  <vsurf_V>
849.625

>  <vsurf_W1>
1394.75

>  <vsurf_W2>
816.75

>  <vsurf_W3>
407.75

>  <vsurf_W4>
139.5

>  <vsurf_W5>
44.75

>  <vsurf_W6>
11.25

>  <vsurf_W7>
1

>  <vsurf_W8>
0

>  <vsurf_Wp1>
1073.63

>  <vsurf_Wp2>
440.625

>  <vsurf_Wp3>
81.875

>  <vsurf_Wp4>
14

>  <vsurf_Wp5>
5.75

>  <vsurf_Wp6>
1.25

>  <vsurf_Wp7>
0

>  <vsurf_Wp8>
0

>  <dens>
1.07601

>  <glob>
0.0616183

>  <std_dim1>
4.65829

>  <std_dim2>
1.76059

>  <std_dim3>
1.15633

>  <vol>
365.625

>  <logP(o/w)>
2.53

$$$$
D4.cdx
  MOE2008           3D

 50 53  0  0  0  0  0  0  0  0999 V2000
   -5.4660  -10.7140    0.8630 C   0  0  0  0  0  0  0  0  0  0  0  0
   -6.3960  -10.1910    1.0680 H   0  0  0  0  0  0  0  0  0  0  0  0
   -5.3210  -12.0550    1.2200 C   0  0  0  0  0  0  0  0  0  0  0  0
   -6.1650  -12.5380    1.7040 H   0  0  0  0  0  0  0  0  0  0  0  0
   -4.1330  -12.7520    0.9650 C   0  0  0  0  0  0  0  0  0  0  0  0
   -3.1060  -12.0300    0.3340 C   0  0  0  0  0  0  0  0  0  0  0  0
   -3.2080  -10.6870   -0.0380 C   0  0  0  0  0  0  0  0  0  0  0  0
   -4.4220  -10.0280    0.2400 C   0  0  0  0  0  0  0  0  0  0  0  0
   -1.8530  -12.4600   -0.0320 N   0  0  0  0  0  0  0  0  0  0  0  0
   -1.5130  -13.4000    0.1240 H   0  0  0  0  0  0  0  0  0  0  0  0
   -1.1590  -11.4460   -0.6260 C   0  0  0  0  0  0  0  0  0  0  0  0
   -0.1500  -11.6170   -0.9820 H   0  0  0  0  0  0  0  0  0  0  0  0
   -1.9610  -10.3170   -0.6450 C   0  0  0  0  0  0  0  0  0  0  0  0
   -1.5550   -9.0250   -1.1870 C   0  0  0  0  0  0  0  0  0  0  0  0
   -0.1790   -8.8830   -1.8130 C   0  0  0  0  0  0  0  0  0  0  0  0
    0.8590   -8.5040   -0.9650 N   0  0  0  0  0  0  0  0  0  0  0  0
    2.2220   -8.4450   -1.4920 C   0  0  0  0  0  0  0  0  0  0  0  0
    2.3200   -9.1040   -2.3610 H   0  0  0  0  0  0  0  0  0  0  0  0
    2.3820   -7.4170   -1.8380 H   0  0  0  0  0  0  0  0  0  0  0  0
    3.2620   -8.8120   -0.4300 C   0  0  0  0  0  0  0  0  0  0  0  0
    4.2700   -8.7130   -0.8460 H   0  0  0  0  0  0  0  0  0  0  0  0
    3.1190   -9.8550   -0.1230 H   0  0  0  0  0  0  0  0  0  0  0  0
    3.1420   -7.9910    0.7840 N   0  0  0  0  0  0  0  0  0  0  0  0
    1.8460   -7.3490    1.0210 C   0  0  0  0  0  0  0  0  0  0  0  0
    1.6980   -7.1810    2.0930 H   0  0  0  0  0  0  0  0  0  0  0  0
    1.8940   -6.3650    0.5390 H   0  0  0  0  0  0  0  0  0  0  0  0
    0.6750   -8.1530    0.4500 C   0  0  0  0  0  0  0  0  0  0  0  0
   -0.2580   -7.5950    0.5740 H   0  0  0  0  0  0  0  0  0  0  0  0
    0.5730   -9.0990    0.9950 H   0  0  0  0  0  0  0  0  0  0  0  0
    4.1710   -7.7610    1.6970 C   0  0  0  0  0  0  0  0  0  0  0  0
    5.4490   -8.4890    1.5290 C   0  0  0  0  0  0  0  0  0  0  0  0
    5.4920   -9.8840    1.6200 C   0  0  0  0  0  0  0  0  0  0  0  0
    4.5880  -10.4560    1.8080 H   0  0  0  0  0  0  0  0  0  0  0  0
    6.7130  -10.5430    1.4840 C   0  0  0  0  0  0  0  0  0  0  0  0
    6.7590  -11.6270    1.5510 H   0  0  0  0  0  0  0  0  0  0  0  0
    7.8840   -9.8110    1.2740 C   0  0  0  0  0  0  0  0  0  0  0  0
    8.8350  -10.3270    1.1730 H   0  0  0  0  0  0  0  0  0  0  0  0
    7.8390   -8.4170    1.2070 C   0  0  0  0  0  0  0  0  0  0  0  0
    8.7550   -7.8510    1.0570 H   0  0  0  0  0  0  0  0  0  0  0  0
    6.6210   -7.7510    1.3420 C   0  0  0  0  0  0  0  0  0  0  0  0
    6.5880   -6.6650    1.3020 H   0  0  0  0  0  0  0  0  0  0  0  0
   -2.2550   -8.0180   -1.1610 O   0  0  0  0  0  0  0  0  0  0  0  0
   -0.0690   -9.1470   -3.0050 O   0  0  0  0  0  0  0  0  0  0  0  0
    4.0920   -6.9750    2.6370 O   0  0  0  0  0  0  0  0  0  0  0  0
   -4.6180   -8.7410   -0.0770 F   0  0  0  0  0  0  0  0  0  0  0  0
   -3.8880  -14.0600    1.2750 O   0  0  0  0  0  0  0  0  0  0  0  0
   -4.9530  -14.7950    1.8640 C   0  0  0  0  0  0  0  0  0  0  0  0
   -4.6030  -15.8190    2.0250 H   0  0  0  0  0  0  0  0  0  0  0  0
   -5.8190  -14.8400    1.1960 H   0  0  0  0  0  0  0  0  0  0  0  0
   -5.2250  -14.3790    2.8400 H   0  0  0  0  0  0  0  0  0  0  0  0
  1  2  1  0  0  0  0
  1  3  1  0  0  0  0
  1  8  2  0  0  0  0
  3  4  1  0  0  0  0
  3  5  2  0  0  0  0
  5  6  1  0  0  0  0
  5 46  1  0  0  0  0
  6  7  2  0  0  0  0
  6  9  1  0  0  0  0
  7  8  1  0  0  0  0
  7 13  1  0  0  0  0
  8 45  1  0  0  0  0
  9 10  1  0  0  0  0
  9 11  1  0  0  0  0
 11 12  1  0  0  0  0
 11 13  2  0  0  0  0
 13 14  1  0  0  0  0
 14 15  1  0  0  0  0
 14 42  2  0  0  0  0
 15 16  1  0  0  0  0
 15 43  2  0  0  0  0
 16 17  1  0  0  0  0
 16 27  1  0  0  0  0
 17 18  1  0  0  0  0
 17 19  1  0  0  0  0
 17 20  1  0  0  0  0
 20 21  1  0  0  0  0
 20 22  1  0  0  0  0
 20 23  1  0  0  0  0
 23 24  1  0  0  0  0
 23 30  1  0  0  0  0
 24 25  1  0  0  0  0
 24 26  1  0  0  0  0
 24 27  1  0  0  0  0
 27 28  1  0  0  0  0
 27 29  1  0  0  0  0
 30 31  1  0  0  0  0
 30 44  2  0  0  0  0
 31 32  1  0  0  0  0
 31 40  2  0  0  0  0
 32 33  1  0  0  0  0
 32 34  2  0  0  0  0
 34 35  1  0  0  0  0
 34 36  1  0  0  0  0
 36 37  1  0  0  0  0
 36 38  2  0  0  0  0
 38 39  1  0  0  0  0
 38 40  1  0  0  0  0
 40 41  1  0  0  0  0
 46 47  1  0  0  0  0
 47 48  1  0  0  0  0
 47 49  1  0  0  0  0
 47 50  1  0  0  0  0
M  END
>  <Activity>
10.2218

>  <AM1_dipole>
6.36477

>  <AM1_E>
-126306

>  <AM1_Eele>
-944346

>  <AM1_HF>
-60.6583

>  <AM1_HOMO>
-8.58245

>  <AM1_IP>
8.58245

>  <AM1_LUMO>
-0.55143

>  <diameter>
16

>  <petitjean>
0.5

>  <petitjeanSC>
1

>  <radius>
8

>  <VDistEq>
3.73573

>  <VDistMa>
9.49515

>  <weinerPath>
2659

>  <weinerPol>
52

>  <BCUT_PEOE_0>
-2.71188

>  <BCUT_PEOE_1>
-0.609751

>  <BCUT_PEOE_2>
0.5971

>  <BCUT_PEOE_3>
2.65031

>  <BCUT_SLOGP_0>
-2.86001

>  <BCUT_SLOGP_1>
-0.511918

>  <BCUT_SLOGP_2>
0.72982

>  <BCUT_SLOGP_3>
2.50369

>  <BCUT_SMR_0>
-2.43203

>  <BCUT_SMR_1>
-0.413586

>  <BCUT_SMR_2>
0.776877

>  <BCUT_SMR_3>
2.92025

>  <GCUT_PEOE_0>
-0.854327

>  <GCUT_PEOE_1>
-0.398392

>  <GCUT_PEOE_2>
0.0719894

>  <GCUT_PEOE_3>
2.67804

>  <GCUT_SLOGP_0>
-0.976493

>  <GCUT_SLOGP_1>
-0.327423

>  <GCUT_SLOGP_2>
0.155533

>  <GCUT_SLOGP_3>
2.67022

>  <GCUT_SMR_0>
-0.508924

>  <GCUT_SMR_1>
-0.206795

>  <GCUT_SMR_2>
0.181013

>  <GCUT_SMR_3>
2.94667

>  <a_aro>
15

>  <a_count>
50

>  <a_IC>
84.8919

>  <a_ICM>
1.69784

>  <a_nH>
20

>  <b_1rotN>
6

>  <b_1rotR>
0.181818

>  <b_ar>
16

>  <b_count>
53

>  <b_double>
3

>  <b_rotN>
6

>  <b_rotR>
0.181818

>  <b_single>
34

>  <b_triple>
0

>  <chi0v>
16.3526

>  <chi0v_C>
12.9472

>  <chi1v>
9.52457

>  <chi1v_C>
5.86004

>  <chiral>
0

>  <chiral_u>
0

>  <nmol>
1

>  <reactive>
0

>  <rings>
4

>  <Weight>
409.417

>  <a_heavy>
30

>  <a_nB>
0

>  <a_nBr>
0

>  <a_nC>
22

>  <a_nCl>
0

>  <a_nF>
1

>  <a_nI>
0

>  <a_nN>
3

>  <a_nO>
4

>  <a_nP>
0

>  <a_nS>
0

>  <b_heavy>
33

>  <chi0>
21.2503

>  <chi0_C>
14.6814

>  <chi1>
14.5072

>  <chi1_C>
7.87457

>  <FCharge>
0

>  <VAdjEq>
0.378242

>  <VAdjMa>
6.04439

>  <zagreb>
160

>  <balabanJ>
1.31105

>  <PEOE_PC+>
2.72119

>  <PEOE_PC->
-2.72119

>  <PEOE_RPC+>
0.108445

>  <PEOE_RPC->
0.131517

>  <PEOE_VSA+0>
98.93

>  <PEOE_VSA+1>
98.4089

>  <PEOE_VSA+2>
9.02085

>  <PEOE_VSA+3>
8.61901

>  <PEOE_VSA+4>
0

>  <PEOE_VSA+5>
34.3576

>  <PEOE_VSA+6>
0

>  <PEOE_VSA-0>
49.0196

>  <PEOE_VSA-1>
36.7647

>  <PEOE_VSA-2>
0

>  <PEOE_VSA-3>
0

>  <PEOE_VSA-4>
11.9086

>  <PEOE_VSA-5>
40.7008

>  <PEOE_VSA-6>
2.64065

>  <PEOE_VSA_FHYD>
0.770455

>  <PEOE_VSA_FNEG>
0.361283

>  <PEOE_VSA_FPNEG>
0.141532

>  <PEOE_VSA_FPOL>
0.229545

>  <PEOE_VSA_FPOS>
0.638717

>  <PEOE_VSA_FPPOS>
0.0880127

>  <PEOE_VSA_HYD>
300.763

>  <PEOE_VSA_NEG>
141.034

>  <PEOE_VSA_PNEG>
55.25

>  <PEOE_VSA_POL>
89.6076

>  <PEOE_VSA_POS>
249.336

>  <PEOE_VSA_PPOS>
34.3576

>  <PC+>
5.171

>  <PC->
-5.173

>  <Q_PC+>
5.171

>  <Q_PC->
-5.173

>  <Q_RPC+>
0.126861

>  <Q_RPC->
0.127586

>  <Q_VSA_FHYD>
0.537122

>  <Q_VSA_FNEG>
0.42665

>  <Q_VSA_FPNEG>
0.153573

>  <Q_VSA_FPOL>
0.462878

>  <Q_VSA_FPOS>
0.57335

>  <Q_VSA_FPPOS>
0.309305

>  <Q_VSA_HYD>
209.677

>  <Q_VSA_NEG>
166.551

>  <Q_VSA_PNEG>
59.9504

>  <Q_VSA_POL>
180.694

>  <Q_VSA_POS>
223.819

>  <Q_VSA_PPOS>
120.744

>  <RPC+>
0.126861

>  <RPC->
0.127586

>  <lip_acc>
7

>  <lip_don>
1

>  <lip_druglike>
1

>  <lip_violation>
0

>  <opr_brigid>
22

>  <opr_leadlike>
1

>  <opr_nring>
4

>  <opr_nrot>
6

>  <opr_violation>
0

>  <E>
104.219

>  <E_ang>
13.4889

>  <E_ele>
29.8436

>  <E_nb>
80.4317

>  <E_oop>
0.0717327

>  <E_sol>
-20.5646

>  <E_stb>
0.240616

>  <E_str>
5.87857

>  <E_strain>
0.00452708

>  <E_tor>
4.10702

>  <E_vdw>
50.5881

>  <E_rele>
0

>  <E_rnb>
0

>  <E_rsol>
0

>  <E_rvdw>
0

>  <Kier1>
23.168

>  <Kier2>
10.2924

>  <Kier3>
4.8595

>  <KierA1>
16.2147

>  <KierA2>
7.10744

>  <KierA3>
3.32393

>  <KierFlex>
3.8415

>  <logS>
-4.37495

>  <MNDO_dipole>
7.47343

>  <MNDO_E>
-126449

>  <MNDO_Eele>
-936547

>  <MNDO_HF>
-98.5323

>  <MNDO_HOMO>
-8.62644

>  <MNDO_IP>
8.62644

>  <MNDO_LUMO>
-0.64835

>  <apol>
59.1209

>  <bpol>
32.4771

>  <mr>
11.0019

>  <dipole>
1.77015

>  <dipoleX>
0.460263

>  <dipoleY>
-1.66975

>  <dipoleZ>
0.365438

>  <pmi>
9513

>  <pmiX>
7107.89

>  <pmiY>
1709.73

>  <pmiZ>
695.374

>  <rgyr>
4.82032

>  <a_acc>
4

>  <a_acid>
0

>  <a_base>
0

>  <a_don>
1

>  <a_hyd>
20

>  <vsa_acc>
43.2045

>  <vsa_acid>
0

>  <vsa_base>
0

>  <vsa_don>
5.68258

>  <vsa_hyd>
290.529

>  <vsa_other>
34.3576

>  <vsa_pol>
48.8871

>  <PM3_dipole>
7.30706

>  <PM3_E>
-115651

>  <PM3_Eele>
-929972

>  <PM3_HF>
-109.851

>  <PM3_HOMO>
-8.652

>  <PM3_IP>
8.652

>  <PM3_LUMO>
-0.62545

>  <SlogP>
2.4829

>  <SlogP_VSA0>
10.9999

>  <SlogP_VSA1>
22.4538

>  <SlogP_VSA2>
49.7688

>  <SlogP_VSA3>
73.7583

>  <SlogP_VSA4>
54.0956

>  <SlogP_VSA5>
35.3839

>  <SlogP_VSA6>
0

>  <SlogP_VSA7>
145.434

>  <SlogP_VSA8>
0

>  <SlogP_VSA9>
20.2035

>  <SMR>
10.8065

>  <SMR_VSA0>
71.5866

>  <SMR_VSA1>
32.2086

>  <SMR_VSA2>
25.9065

>  <SMR_VSA3>
11.6146

>  <SMR_VSA4>
4.7171

>  <SMR_VSA5>
140.717

>  <SMR_VSA6>
89.9635

>  <SMR_VSA7>
35.3839

>  <ASA>
665.341

>  <ASA+>
256.92

>  <ASA->
244.667

>  <ASA_H>
480.049

>  <ASA_P>
185.292

>  <CASA+>
1328.53

>  <CASA->
1265.66

>  <DASA>
12.2531

>  <DCASA>
62.8716

>  <FASA+>
0.386148

>  <FASA->
0.367732

>  <FASA_H>
0.721509

>  <FASA_P>
0.278491

>  <FCASA+>
1.99677

>  <FCASA->
1.90228

>  <VSA>
410.362

>  <TPSA>
82.71

>  <density>
0.781517

>  <vdw_area>
390.371

>  <vdw_vol>
523.875

>  <vsurf_A>
2.73888

>  <vsurf_CP>
0.103557

>  <vsurf_CW1>
2.6345

>  <vsurf_CW2>
2.07183

>  <vsurf_CW3>
1.34745

>  <vsurf_CW4>
0.648407

>  <vsurf_CW5>
0.291961

>  <vsurf_CW6>
0.0982185

>  <vsurf_CW7>
0.0138824

>  <vsurf_CW8>
0.00143952

>  <vsurf_D1>
896.5

>  <vsurf_D2>
530.375

>  <vsurf_D3>
403.375

>  <vsurf_D4>
345.25

>  <vsurf_D5>
297.125

>  <vsurf_D6>
233.375

>  <vsurf_D7>
136.625

>  <vsurf_D8>
76.875

>  <vsurf_DD12>
0.5

>  <vsurf_DD13>
1.11803

>  <vsurf_DD23>
0.707107

>  <vsurf_DW12>
0.5

>  <vsurf_DW13>
0.707107

>  <vsurf_DW23>
0.5

>  <vsurf_EDmin1>
-2.78487

>  <vsurf_EDmin2>
-2.76153

>  <vsurf_EDmin3>
-2.73456

>  <vsurf_EWmin1>
-6.33635

>  <vsurf_EWmin2>
-6.27165

>  <vsurf_EWmin3>
-6.12548

>  <vsurf_G>
1.36803

>  <vsurf_HB1>
336.125

>  <vsurf_HB2>
399

>  <vsurf_HB3>
351.875

>  <vsurf_HB4>
141.5

>  <vsurf_HB5>
52.75

>  <vsurf_HB6>
14.75

>  <vsurf_HB7>
2.25

>  <vsurf_HB8>
0.375

>  <vsurf_HL1>
0.144097

>  <vsurf_HL2>
0.0477915

>  <vsurf_ID1>
1.28242

>  <vsurf_ID2>
1.30357

>  <vsurf_ID3>
1.42025

>  <vsurf_ID4>
1.60417

>  <vsurf_ID5>
1.729

>  <vsurf_ID6>
1.64011

>  <vsurf_ID7>
0.962585

>  <vsurf_ID8>
0.84728

>  <vsurf_IW1>
0.246601

>  <vsurf_IW2>
0.739334

>  <vsurf_IW3>
1.23518

>  <vsurf_IW4>
1.69775

>  <vsurf_IW5>
1.36861

>  <vsurf_IW6>
0.978728

>  <vsurf_IW7>
4.1781

>  <vsurf_IW8>
6.04159

>  <vsurf_R>
1.44346

>  <vsurf_S>
603.324

>  <vsurf_V>
870.875

>  <vsurf_W1>
1427.13

>  <vsurf_W2>
848.125

>  <vsurf_W3>
439.625

>  <vsurf_W4>
156.875

>  <vsurf_W5>
58.125

>  <vsurf_W6>
16.5

>  <vsurf_W7>
2.25

>  <vsurf_W8>
0.375

>  <vsurf_Wp1>
1091

>  <vsurf_Wp2>
449.125

>  <vsurf_Wp3>
87.75

>  <vsurf_Wp4>
15.375

>  <vsurf_Wp5>
5.375

>  <vsurf_Wp6>
1.75

>  <vsurf_Wp7>
0

>  <vsurf_Wp8>
0

>  <dens>
1.10058

>  <glob>
0.0603927

>  <std_dim1>
4.66327

>  <std_dim2>
1.90503

>  <std_dim3>
1.14599

>  <vol>
372

>  <logP(o/w)>
2.188

$$$$
D4.cdx
  MOE2008           3D

 53 56  0  0  0  0  0  0  0  0999 V2000
   -6.6140  -13.9510   -2.4820 C   0  0  0  0  0  0  0  0  0  0  0  0
   -7.1380  -13.2740   -3.1510 H   0  0  0  0  0  0  0  0  0  0  0  0
   -7.3280  -14.8110   -1.6540 C   0  0  0  0  0  0  0  0  0  0  0  0
   -8.4140  -14.8140   -1.6860 H   0  0  0  0  0  0  0  0  0  0  0  0
   -6.6580  -15.6750   -0.7870 C   0  0  0  0  0  0  0  0  0  0  0  0
   -5.2550  -15.6820   -0.7990 C   0  0  0  0  0  0  0  0  0  0  0  0
   -4.5050  -14.8400   -1.6280 C   0  0  0  0  0  0  0  0  0  0  0  0
   -5.2150  -13.9570   -2.4730 C   0  0  0  0  0  0  0  0  0  0  0  0
   -4.3670  -16.4490   -0.0840 N   0  0  0  0  0  0  0  0  0  0  0  0
   -4.6360  -17.1520    0.5970 H   0  0  0  0  0  0  0  0  0  0  0  0
   -3.0840  -16.1230   -0.4250 C   0  0  0  0  0  0  0  0  0  0  0  0
   -2.2550  -16.6400    0.0420 H   0  0  0  0  0  0  0  0  0  0  0  0
   -3.1180  -15.1290   -1.3890 C   0  0  0  0  0  0  0  0  0  0  0  0
   -1.9400  -14.5320   -2.0130 C   0  0  0  0  0  0  0  0  0  0  0  0
   -0.5530  -15.0190   -1.6270 C   0  0  0  0  0  0  0  0  0  0  0  0
    0.2450  -14.1380   -0.8980 N   0  0  0  0  0  0  0  0  0  0  0  0
    1.6040  -14.5390   -0.5360 C   0  0  0  0  0  0  0  0  0  0  0  0
    1.5500  -14.9670    0.4720 H   0  0  0  0  0  0  0  0  0  0  0  0
    1.9610  -15.3260   -1.2090 H   0  0  0  0  0  0  0  0  0  0  0  0
    2.5710  -13.3520   -0.5570 C   0  0  0  0  0  0  0  0  0  0  0  0
    2.6440  -12.9590   -1.5770 H   0  0  0  0  0  0  0  0  0  0  0  0
    3.5680  -13.6750   -0.2410 H   0  0  0  0  0  0  0  0  0  0  0  0
    2.1170  -12.2420    0.2970 N   0  0  0  0  0  0  0  0  0  0  0  0
    0.6910  -12.2060    0.6280 C   0  0  0  0  0  0  0  0  0  0  0  0
    0.5700  -12.7880    1.5500 H   0  0  0  0  0  0  0  0  0  0  0  0
    0.3790  -11.1790    0.8470 H   0  0  0  0  0  0  0  0  0  0  0  0
   -0.1870  -12.7970   -0.4810 C   0  0  0  0  0  0  0  0  0  0  0  0
   -0.1350  -12.1600   -1.3720 H   0  0  0  0  0  0  0  0  0  0  0  0
   -1.2310  -12.8330   -0.1550 H   0  0  0  0  0  0  0  0  0  0  0  0
    2.9480  -11.2560    0.8280 C   0  0  0  0  0  0  0  0  0  0  0  0
    4.3580  -11.1970    0.3790 C   0  0  0  0  0  0  0  0  0  0  0  0
    4.6670  -10.9690   -0.9650 C   0  0  0  0  0  0  0  0  0  0  0  0
    3.8790  -10.8380   -1.7020 H   0  0  0  0  0  0  0  0  0  0  0  0
    6.0020  -10.8930   -1.3610 C   0  0  0  0  0  0  0  0  0  0  0  0
    6.2520  -10.7210   -2.4040 H   0  0  0  0  0  0  0  0  0  0  0  0
    7.0200  -11.0290   -0.4140 C   0  0  0  0  0  0  0  0  0  0  0  0
    8.0600  -10.9660   -0.7240 H   0  0  0  0  0  0  0  0  0  0  0  0
    6.7070  -11.2330    0.9320 C   0  0  0  0  0  0  0  0  0  0  0  0
    7.5030  -11.3240    1.6670 H   0  0  0  0  0  0  0  0  0  0  0  0
    5.3730  -11.3110    1.3340 C   0  0  0  0  0  0  0  0  0  0  0  0
    5.1300  -11.4570    2.3830 H   0  0  0  0  0  0  0  0  0  0  0  0
   -1.9890  -13.6310   -2.8460 O   0  0  0  0  0  0  0  0  0  0  0  0
   -0.2210  -16.1440   -1.9840 O   0  0  0  0  0  0  0  0  0  0  0  0
    2.5890  -10.4280    1.6600 O   0  0  0  0  0  0  0  0  0  0  0  0
   -4.5830  -13.1100   -3.2980 F   0  0  0  0  0  0  0  0  0  0  0  0
   -7.4020  -16.5530   -0.0340 O   0  0  0  0  0  0  0  0  0  0  0  0
   -7.5430  -16.0970    1.3200 C   0  0  0  0  0  0  0  0  0  0  0  0
   -6.9740  -15.1800    1.5230 H   0  0  0  0  0  0  0  0  0  0  0  0
   -8.6020  -15.8710    1.4830 H   0  0  0  0  0  0  0  0  0  0  0  0
   -7.1030  -17.1890    2.2770 C   0  0  0  0  0  0  0  0  0  0  0  0
   -5.8040  -17.5170    2.0690 F   0  0  0  0  0  0  0  0  0  0  0  0
   -7.2200  -16.7760    3.5600 F   0  0  0  0  0  0  0  0  0  0  0  0
   -7.8440  -18.3090    2.1400 F   0  0  0  0  0  0  0  0  0  0  0  0
  1  2  1  0  0  0  0
  1  3  1  0  0  0  0
  1  8  2  0  0  0  0
  3  4  1  0  0  0  0
  3  5  2  0  0  0  0
  5  6  1  0  0  0  0
  5 46  1  0  0  0  0
  6  7  2  0  0  0  0
  6  9  1  0  0  0  0
  7  8  1  0  0  0  0
  7 13  1  0  0  0  0
  8 45  1  0  0  0  0
  9 10  1  0  0  0  0
  9 11  1  0  0  0  0
 11 12  1  0  0  0  0
 11 13  2  0  0  0  0
 13 14  1  0  0  0  0
 14 15  1  0  0  0  0
 14 42  2  0  0  0  0
 15 16  1  0  0  0  0
 15 43  2  0  0  0  0
 16 17  1  0  0  0  0
 16 27  1  0  0  0  0
 17 18  1  0  0  0  0
 17 19  1  0  0  0  0
 17 20  1  0  0  0  0
 20 21  1  0  0  0  0
 20 22  1  0  0  0  0
 20 23  1  0  0  0  0
 23 24  1  0  0  0  0
 23 30  1  0  0  0  0
 24 25  1  0  0  0  0
 24 26  1  0  0  0  0
 24 27  1  0  0  0  0
 27 28  1  0  0  0  0
 27 29  1  0  0  0  0
 30 31  1  0  0  0  0
 30 44  2  0  0  0  0
 31 32  1  0  0  0  0
 31 40  2  0  0  0  0
 32 33  1  0  0  0  0
 32 34  2  0  0  0  0
 34 35  1  0  0  0  0
 34 36  1  0  0  0  0
 36 37  1  0  0  0  0
 36 38  2  0  0  0  0
 38 39  1  0  0  0  0
 38 40  1  0  0  0  0
 40 41  1  0  0  0  0
 46 47  1  0  0  0  0
 47 48  1  0  0  0  0
 47 49  1  0  0  0  0
 47 50  1  0  0  0  0
 50 51  1  0  0  0  0
 50 52  1  0  0  0  0
 50 53  1  0  0  0  0
M  END
>  <Activity>
9.1487

>  <AM1_dipole>
2.38108

>  <AM1_E>
-162529

>  <AM1_Eele>
-1.18448e+006

>  <AM1_HF>
-233.704

>  <AM1_HOMO>
-9.01365

>  <AM1_IP>
9.01365

>  <AM1_LUMO>
-0.88969

>  <diameter>
18

>  <petitjean>
0.5

>  <petitjeanSC>
1

>  <radius>
9

>  <VDistEq>
3.92274

>  <VDistMa>
9.857

>  <weinerPath>
3834

>  <weinerPol>
56

>  <BCUT_PEOE_0>
-2.71188

>  <BCUT_PEOE_1>
-0.602889

>  <BCUT_PEOE_2>
0.595449

>  <BCUT_PEOE_3>
2.65031

>  <BCUT_SLOGP_0>
-2.86001

>  <BCUT_SLOGP_1>
-0.505737

>  <BCUT_SLOGP_2>
0.728543

>  <BCUT_SLOGP_3>
2.50379

>  <BCUT_SMR_0>
-2.43203

>  <BCUT_SMR_1>
-0.412312

>  <BCUT_SMR_2>
0.769599

>  <BCUT_SMR_3>
2.92026

>  <GCUT_PEOE_0>
-0.854325

>  <GCUT_PEOE_1>
-0.398387

>  <GCUT_PEOE_2>
0.0718745

>  <GCUT_PEOE_3>
2.69775

>  <GCUT_SLOGP_0>
-0.976499

>  <GCUT_SLOGP_1>
-0.327421

>  <GCUT_SLOGP_2>
0.251905

>  <GCUT_SLOGP_3>
2.69353

>  <GCUT_SMR_0>
-0.509023

>  <GCUT_SMR_1>
-0.206107

>  <GCUT_SMR_2>
0.181013

>  <GCUT_SMR_3>
2.9627

>  <a_aro>
15

>  <a_count>
53

>  <a_IC>
98.0723

>  <a_ICM>
1.85042

>  <a_nH>
19

>  <b_1rotN>
7

>  <b_1rotR>
0.189189

>  <b_ar>
16

>  <b_count>
56

>  <b_double>
3

>  <b_rotN>
8

>  <b_rotR>
0.216216

>  <b_single>
37

>  <b_triple>
0

>  <chi0v>
17.6936

>  <chi0v_C>
13.1543

>  <chi1v>
10.3255

>  <chi1v_C>
6.2136

>  <chiral>
0

>  <chiral_u>
0

>  <nmol>
1

>  <reactive>
0

>  <rings>
4

>  <Weight>
477.414

>  <a_heavy>
34

>  <a_nB>
0

>  <a_nBr>
0

>  <a_nC>
23

>  <a_nCl>
0

>  <a_nF>
4

>  <a_nI>
0

>  <a_nN>
3

>  <a_nO>
4

>  <a_nP>
0

>  <a_nS>
0

>  <b_heavy>
37

>  <chi0>
24.4575

>  <chi0_C>
14.8885

>  <chi1>
16.1537

>  <chi1_C>
8.22813

>  <FCharge>
0

>  <VAdjEq>
0.343176

>  <VAdjMa>
6.20945

>  <zagreb>
182

>  <balabanJ>
1.30674

>  <PEOE_PC+>
3.21363

>  <PEOE_PC->
-3.21363

>  <PEOE_RPC+>
0.128593

>  <PEOE_RPC->
0.111364

>  <PEOE_VSA+0>
73.9323

>  <PEOE_VSA+1>
85.685

>  <PEOE_VSA+2>
32.4307

>  <PEOE_VSA+3>
8.61901

>  <PEOE_VSA+4>
0

>  <PEOE_VSA+5>
34.3576

>  <PEOE_VSA+6>
9.0455

>  <PEOE_VSA-0>
49.0196

>  <PEOE_VSA-1>
36.7647

>  <PEOE_VSA-2>
0

>  <PEOE_VSA-3>
35.7259

>  <PEOE_VSA-4>
11.9086

>  <PEOE_VSA-5>
40.7008

>  <PEOE_VSA-6>
2.64065

>  <PEOE_VSA_FHYD>
0.765575

>  <PEOE_VSA_FNEG>
0.420027

>  <PEOE_VSA_FPNEG>
0.131288

>  <PEOE_VSA_FPOL>
0.234425

>  <PEOE_VSA_FPOS>
0.579973

>  <PEOE_VSA_FPPOS>
0.103137

>  <PEOE_VSA_HYD>
322.177

>  <PEOE_VSA_NEG>
176.76

>  <PEOE_VSA_PNEG>
55.25

>  <PEOE_VSA_POL>
98.6531

>  <PEOE_VSA_POS>
244.07

>  <PEOE_VSA_PPOS>
43.4031

>  <PC+>
6.191

>  <PC->
-6.193

>  <Q_PC+>
6.191

>  <Q_PC->
-6.193

>  <Q_RPC+>
0.164755

>  <Q_RPC->
0.106572

>  <Q_VSA_FHYD>
0.48811

>  <Q_VSA_FNEG>
0.480663

>  <Q_VSA_FPNEG>
0.227351

>  <Q_VSA_FPOL>
0.51189

>  <Q_VSA_FPOS>
0.519337

>  <Q_VSA_FPPOS>
0.284539

>  <Q_VSA_HYD>
205.411

>  <Q_VSA_NEG>
202.277

>  <Q_VSA_PNEG>
95.6763

>  <Q_VSA_POL>
215.419

>  <Q_VSA_POS>
218.553

>  <Q_VSA_PPOS>
119.743

>  <RPC+>
0.164755

>  <RPC->
0.106572

>  <lip_acc>
7

>  <lip_don>
1

>  <lip_druglike>
1

>  <lip_violation>
0

>  <opr_brigid>
22

>  <opr_leadlike>
1

>  <opr_nring>
4

>  <opr_nrot>
7

>  <opr_violation>
1

>  <E>
114.089

>  <E_ang>
10.2248

>  <E_ele>
34.4473

>  <E_nb>
83.8658

>  <E_oop>
0.101157

>  <E_sol>
-2.15372

>  <E_stb>
0.444367

>  <E_str>
6.25435

>  <E_strain>
0.00536837

>  <E_tor>
13.1985

>  <E_vdw>
49.4185

>  <E_rele>
0

>  <E_rnb>
-1.13687e-013

>  <E_rsol>
-1.13687e-013

>  <E_rvdw>
0

>  <Kier1>
27.046

>  <Kier2>
11.5885

>  <Kier3>
6.47837

>  <KierA1>
19.4561

>  <KierA2>
8.24692

>  <KierA3>
4.57542

>  <KierFlex>
4.7192

>  <logS>
-5.45794

>  <MNDO_dipole>
1.24192

>  <MNDO_E>
-162256

>  <MNDO_Eele>
-1.16479e+006

>  <MNDO_HF>
-232.826

>  <MNDO_HOMO>
-9.14162

>  <MNDO_IP>
9.14162

>  <MNDO_LUMO>
-1.05911

>  <apol>
61.8851

>  <bpol>
34.9929

>  <mr>
11.5597

>  <dipole>
0.645973

>  <dipoleX>
-0.0773936

>  <dipoleY>
-0.239571

>  <dipoleZ>
0.594893

>  <pmi>
14259.9

>  <pmiX>
10442

>  <pmiY>
2431.12

>  <pmiZ>
1386.76

>  <rgyr>
5.46526

>  <a_acc>
4

>  <a_acid>
0

>  <a_base>
0

>  <a_don>
1

>  <a_hyd>
24

>  <vsa_acc>
43.2045

>  <vsa_acid>
0

>  <vsa_base>
0

>  <vsa_don>
5.68258

>  <vsa_hyd>
321.7

>  <vsa_other>
34.3576

>  <vsa_pol>
48.8871

>  <PM3_dipole>
2.82766

>  <PM3_E>
-148514

>  <PM3_Eele>
-1.16138e+006

>  <PM3_HF>
-265.316

>  <PM3_HOMO>
-9.04617

>  <PM3_IP>
9.04617

>  <PM3_LUMO>
-0.94544

>  <SlogP>
3.4154

>  <SlogP_VSA0>
10.9999

>  <SlogP_VSA1>
30.2133

>  <SlogP_VSA2>
49.7688

>  <SlogP_VSA3>
94.6846

>  <SlogP_VSA4>
54.0956

>  <SlogP_VSA5>
0

>  <SlogP_VSA6>
0

>  <SlogP_VSA7>
145.434

>  <SlogP_VSA8>
0

>  <SlogP_VSA9>
65.0839

>  <SMR>
11.3063

>  <SMR_VSA0>
71.5866

>  <SMR_VSA1>
77.089

>  <SMR_VSA2>
33.6661

>  <SMR_VSA3>
11.6146

>  <SMR_VSA4>
4.7171

>  <SMR_VSA5>
140.717

>  <SMR_VSA6>
110.89

>  <SMR_VSA7>
0

>  <ASA>
706.853

>  <ASA+>
228.892

>  <ASA->
335.762

>  <ASA_H>
463.413

>  <ASA_P>
243.44

>  <CASA+>
1417.07

>  <CASA->
2079.37

>  <DASA>
106.87

>  <DCASA>
662.304

>  <FASA+>
0.323818

>  <FASA->
0.47501

>  <FASA_H>
0.655601

>  <FASA_P>
0.344399

>  <FCASA+>
2.00476

>  <FCASA->
2.94173

>  <VSA>
439.753

>  <TPSA>
82.71

>  <density>
0.855994

>  <vdw_area>
420.83

>  <vdw_vol>
557.731

>  <vsurf_A>
3.06792

>  <vsurf_CP>
0.0814101

>  <vsurf_CW1>
2.63891

>  <vsurf_CW2>
2.25264

>  <vsurf_CW3>
1.56281

>  <vsurf_CW4>
0.778502

>  <vsurf_CW5>
0.29481

>  <vsurf_CW6>
0.0788313

>  <vsurf_CW7>
0.00557706

>  <vsurf_CW8>
0

>  <vsurf_D1>
881.875

>  <vsurf_D2>
505.875

>  <vsurf_D3>
371

>  <vsurf_D4>
309.125

>  <vsurf_D5>
262.25

>  <vsurf_D6>
215.75

>  <vsurf_D7>
127.625

>  <vsurf_D8>
68.25

>  <vsurf_DD12>
3.20156

>  <vsurf_DD13>
2.91548

>  <vsurf_DD23>
0.5

>  <vsurf_DW12>
5.22015

>  <vsurf_DW13>
4.94975

>  <vsurf_DW23>
0.5

>  <vsurf_EDmin1>
-2.75072

>  <vsurf_EDmin2>
-2.69419

>  <vsurf_EDmin3>
-2.64717

>  <vsurf_EWmin1>
-5.38397

>  <vsurf_EWmin2>
-5.33272

>  <vsurf_EWmin3>
-5.32577

>  <vsurf_G>
1.40348

>  <vsurf_HB1>
443.25

>  <vsurf_HB2>
560.875

>  <vsurf_HB3>
474.125

>  <vsurf_HB4>
191

>  <vsurf_HB5>
58.625

>  <vsurf_HB6>
13.5

>  <vsurf_HB7>
1.25

>  <vsurf_HB8>
0

>  <vsurf_HL1>
0.158019

>  <vsurf_HL2>
0.0436717

>  <vsurf_ID1>
1.87039

>  <vsurf_ID2>
1.92102

>  <vsurf_ID3>
2.20454

>  <vsurf_ID4>
2.64827

>  <vsurf_ID5>
2.94069

>  <vsurf_ID6>
2.9263

>  <vsurf_ID7>
1.82673

>  <vsurf_ID8>
1.31135

>  <vsurf_IW1>
0.521886

>  <vsurf_IW2>
0.439583

>  <vsurf_IW3>
0.988705

>  <vsurf_IW4>
1.17069

>  <vsurf_IW5>
1.16737

>  <vsurf_IW6>
1.45417

>  <vsurf_IW7>
3.78677

>  <vsurf_IW8>
0

>  <vsurf_R>
1.43732

>  <vsurf_S>
645.909

>  <vsurf_V>
928.375

>  <vsurf_W1>
1546.63

>  <vsurf_W2>
998.875

>  <vsurf_W3>
542.625

>  <vsurf_W4>
194.625

>  <vsurf_W5>
58.625

>  <vsurf_W6>
13.5

>  <vsurf_W7>
1.25

>  <vsurf_W8>
0

>  <vsurf_Wp1>
1103.38

>  <vsurf_Wp2>
438

>  <vsurf_Wp3>
68.5

>  <vsurf_Wp4>
3.625

>  <vsurf_Wp5>
0

>  <vsurf_Wp6>
0

>  <vsurf_Wp7>
0

>  <vsurf_Wp8>
0

>  <dens>
1.19428

>  <glob>
0.0489389

>  <std_dim1>
5.21908

>  <std_dim2>
1.63573

>  <std_dim3>
1.15457

>  <vol>
399.75

>  <logP(o/w)>
2.95076

$$$$
D4.cdx
  MOE2008           3D

 47 50  0  0  0  0  0  0  0  0999 V2000
   -4.6600  -17.1930   -0.6090 C   0  0  0  0  0  0  0  0  0  0  0  0
   -5.3770  -16.4590   -0.9660 H   0  0  0  0  0  0  0  0  0  0  0  0
   -5.0810  -18.2680    0.1670 C   0  0  0  0  0  0  0  0  0  0  0  0
   -6.1380  -18.3590    0.4110 H   0  0  0  0  0  0  0  0  0  0  0  0
   -4.1650  -19.2230    0.6310 C   0  0  0  0  0  0  0  0  0  0  0  0
   -2.8100  -19.0560    0.2850 C   0  0  0  0  0  0  0  0  0  0  0  0
   -2.3540  -17.9830   -0.4950 C   0  0  0  0  0  0  0  0  0  0  0  0
   -3.3110  -17.0450   -0.9410 C   0  0  0  0  0  0  0  0  0  0  0  0
   -1.7070  -19.8240    0.5900 N   0  0  0  0  0  0  0  0  0  0  0  0
   -1.7270  -20.6720    1.1430 H   0  0  0  0  0  0  0  0  0  0  0  0
   -0.5800  -19.2790    0.0380 C   0  0  0  0  0  0  0  0  0  0  0  0
    0.3780  -19.7640    0.1800 H   0  0  0  0  0  0  0  0  0  0  0  0
   -0.9320  -18.1320   -0.6500 C   0  0  0  0  0  0  0  0  0  0  0  0
    0.0010  -17.2730   -1.3760 C   0  0  0  0  0  0  0  0  0  0  0  0
    1.4720  -17.6380   -1.4540 C   0  0  0  0  0  0  0  0  0  0  0  0
    2.3460  -16.9470   -0.6200 N   0  0  0  0  0  0  0  0  0  0  0  0
    3.7800  -17.2430   -0.6610 C   0  0  0  0  0  0  0  0  0  0  0  0
    4.0330  -17.7070    0.2990 H   0  0  0  0  0  0  0  0  0  0  0  0
    4.0100  -17.9650   -1.4500 H   0  0  0  0  0  0  0  0  0  0  0  0
    4.6120  -15.9680   -0.8610 C   0  0  0  0  0  0  0  0  0  0  0  0
    4.4480  -15.5640   -1.8670 H   0  0  0  0  0  0  0  0  0  0  0  0
    5.6690  -16.2210   -0.7630 H   0  0  0  0  0  0  0  0  0  0  0  0
    4.2130  -14.9160    0.0900 N   0  0  0  0  0  0  0  0  0  0  0  0
    2.7740  -14.6300    0.1260 C   0  0  0  0  0  0  0  0  0  0  0  0
    2.5340  -13.8960    0.9010 H   0  0  0  0  0  0  0  0  0  0  0  0
    2.5180  -14.1830   -0.8430 H   0  0  0  0  0  0  0  0  0  0  0  0
    1.9560  -15.9080    0.3440 C   0  0  0  0  0  0  0  0  0  0  0  0
    0.8890  -15.6820    0.2910 H   0  0  0  0  0  0  0  0  0  0  0  0
    2.1560  -16.3150    1.3430 H   0  0  0  0  0  0  0  0  0  0  0  0
    5.0660  -14.2050    0.9300 C   0  0  0  0  0  0  0  0  0  0  0  0
    6.5280  -14.3520    0.7540 C   0  0  0  0  0  0  0  0  0  0  0  0
    7.1370  -13.9700   -0.4470 C   0  0  0  0  0  0  0  0  0  0  0  0
    6.5440  -13.5790   -1.2690 H   0  0  0  0  0  0  0  0  0  0  0  0
    8.5200  -14.0860   -0.5810 C   0  0  0  0  0  0  0  0  0  0  0  0
    9.0020  -13.7970   -1.5110 H   0  0  0  0  0  0  0  0  0  0  0  0
    9.2880  -14.5660    0.4820 C   0  0  0  0  0  0  0  0  0  0  0  0
   10.3660  -14.6520    0.3760 H   0  0  0  0  0  0  0  0  0  0  0  0
    8.6770  -14.9240    1.6870 C   0  0  0  0  0  0  0  0  0  0  0  0
    9.2820  -15.2840    2.5150 H   0  0  0  0  0  0  0  0  0  0  0  0
    7.2950  -14.8120    1.8280 C   0  0  0  0  0  0  0  0  0  0  0  0
    6.8190  -15.0790    2.7680 H   0  0  0  0  0  0  0  0  0  0  0  0
   -0.3280  -16.2350   -1.9420 O   0  0  0  0  0  0  0  0  0  0  0  0
    1.7940  -18.5170   -2.2470 O   0  0  0  0  0  0  0  0  0  0  0  0
    4.6870  -13.4530    1.8230 O   0  0  0  0  0  0  0  0  0  0  0  0
   -2.9690  -15.9900   -1.6930 F   0  0  0  0  0  0  0  0  0  0  0  0
   -4.6180  -20.3250    1.4280 C   0  0  0  0  0  0  0  0  0  0  0  0
   -4.9790  -21.2180    2.0760 N   0  0  0  0  0  0  0  0  0  0  0  0
  1  2  1  0  0  0  0
  1  3  1  0  0  0  0
  1  8  2  0  0  0  0
  3  4  1  0  0  0  0
  3  5  2  0  0  0  0
  5  6  1  0  0  0  0
  5 46  1  0  0  0  0
  6  7  2  0  0  0  0
  6  9  1  0  0  0  0
  7  8  1  0  0  0  0
  7 13  1  0  0  0  0
  8 45  1  0  0  0  0
  9 10  1  0  0  0  0
  9 11  1  0  0  0  0
 11 12  1  0  0  0  0
 11 13  2  0  0  0  0
 13 14  1  0  0  0  0
 14 15  1  0  0  0  0
 14 42  2  0  0  0  0
 15 16  1  0  0  0  0
 15 43  2  0  0  0  0
 16 17  1  0  0  0  0
 16 27  1  0  0  0  0
 17 18  1  0  0  0  0
 17 19  1  0  0  0  0
 17 20  1  0  0  0  0
 20 21  1  0  0  0  0
 20 22  1  0  0  0  0
 20 23  1  0  0  0  0
 23 24  1  0  0  0  0
 23 30  1  0  0  0  0
 24 25  1  0  0  0  0
 24 26  1  0  0  0  0
 24 27  1  0  0  0  0
 27 28  1  0  0  0  0
 27 29  1  0  0  0  0
 30 31  1  0  0  0  0
 30 44  2  0  0  0  0
 31 32  1  0  0  0  0
 31 40  2  0  0  0  0
 32 33  1  0  0  0  0
 32 34  2  0  0  0  0
 34 35  1  0  0  0  0
 34 36  1  0  0  0  0
 36 37  1  0  0  0  0
 36 38  2  0  0  0  0
 38 39  1  0  0  0  0
 38 40  1  0  0  0  0
 40 41  1  0  0  0  0
 46 47  3  0  0  0  0
M  END
>  <Activity>
8.7212

>  <AM1_dipole>
3.45129

>  <AM1_E>
-122726

>  <AM1_Eele>
-900392

>  <AM1_HF>
2.8998

>  <AM1_HOMO>
-9.19445

>  <AM1_IP>
9.19445

>  <AM1_LUMO>
-1.13572

>  <diameter>
16

>  <petitjean>
0.5

>  <petitjeanSC>
1

>  <radius>
8

>  <VDistEq>
3.73573

>  <VDistMa>
9.49515

>  <weinerPath>
2659

>  <weinerPol>
52

>  <BCUT_PEOE_0>
-2.71188

>  <BCUT_PEOE_1>
-0.632306

>  <BCUT_PEOE_2>
0.661505

>  <BCUT_PEOE_3>
2.6503

>  <BCUT_SLOGP_0>
-2.86001

>  <BCUT_SLOGP_1>
-0.52624

>  <BCUT_SLOGP_2>
0.782079

>  <BCUT_SLOGP_3>
2.50333

>  <BCUT_SMR_0>
-2.43203

>  <BCUT_SMR_1>
-0.431609

>  <BCUT_SMR_2>
0.825194

>  <BCUT_SMR_3>
2.92024

>  <GCUT_PEOE_0>
-0.856562

>  <GCUT_PEOE_1>
-0.423697

>  <GCUT_PEOE_2>
0.0775083

>  <GCUT_PEOE_3>
2.66182

>  <GCUT_SLOGP_0>
-0.97649

>  <GCUT_SLOGP_1>
-0.333092

>  <GCUT_SLOGP_2>
0.191584

>  <GCUT_SLOGP_3>
2.6377

>  <GCUT_SMR_0>
-0.508913

>  <GCUT_SMR_1>
-0.210431

>  <GCUT_SMR_2>
0.219354

>  <GCUT_SMR_3>
2.93054

>  <a_aro>
15

>  <a_count>
47

>  <a_IC>
80.7164

>  <a_ICM>
1.71737

>  <a_nH>
17

>  <b_1rotN>
5

>  <b_1rotR>
0.151515

>  <b_ar>
16

>  <b_count>
50

>  <b_double>
3

>  <b_rotN>
6

>  <b_rotR>
0.181818

>  <b_single>
30

>  <b_triple>
1

>  <chi0v>
15.8916

>  <chi0v_C>
12.4472

>  <chi1v>
9.3858

>  <chi1v_C>
6.11004

>  <chiral>
0

>  <chiral_u>
0

>  <nmol>
1

>  <reactive>
0

>  <rings>
4

>  <Weight>
404.401

>  <a_heavy>
30

>  <a_nB>
0

>  <a_nBr>
0

>  <a_nC>
22

>  <a_nCl>
0

>  <a_nF>
1

>  <a_nI>
0

>  <a_nN>
4

>  <a_nO>
3

>  <a_nP>
0

>  <a_nS>
0

>  <b_heavy>
33

>  <chi0>
21.2503

>  <chi0_C>
14.3885

>  <chi1>
14.5072

>  <chi1_C>
8.28282

>  <FCharge>
0

>  <VAdjEq>
0.378242

>  <VAdjMa>
6.04439

>  <zagreb>
160

>  <balabanJ>
1.31119

>  <PEOE_PC+>
2.58106

>  <PEOE_PC->
-2.58106

>  <PEOE_RPC+>
0.114333

>  <PEOE_RPC->
0.139044

>  <PEOE_VSA+0>
73.9323

>  <PEOE_VSA+1>
79.3628

>  <PEOE_VSA+2>
29.3204

>  <PEOE_VSA+3>
8.61901

>  <PEOE_VSA+4>
0

>  <PEOE_VSA+5>
34.3576

>  <PEOE_VSA+6>
0

>  <PEOE_VSA-0>
49.0196

>  <PEOE_VSA-1>
36.7647

>  <PEOE_VSA-2>
0

>  <PEOE_VSA-3>
17.7425

>  <PEOE_VSA-4>
11.9086

>  <PEOE_VSA-5>
40.7008

>  <PEOE_VSA-6>
0.136891

>  <PEOE_VSA_FHYD>
0.771899

>  <PEOE_VSA_FNEG>
0.409236

>  <PEOE_VSA_FPNEG>
0.138128

>  <PEOE_VSA_FPOL>
0.228101

>  <PEOE_VSA_FPOS>
0.590764

>  <PEOE_VSA_FPPOS>
0.0899731

>  <PEOE_VSA_HYD>
294.761

>  <PEOE_VSA_NEG>
156.273

>  <PEOE_VSA_PNEG>
52.7463

>  <PEOE_VSA_POL>
87.1039

>  <PEOE_VSA_POS>
225.592

>  <PEOE_VSA_PPOS>
34.3576

>  <PC+>
5.366

>  <PC->
-5.367

>  <Q_PC+>
5.366

>  <Q_PC->
-5.367

>  <Q_RPC+>
0.122251

>  <Q_RPC->
0.122974

>  <Q_VSA_FHYD>
0.499209

>  <Q_VSA_FNEG>
0.476059

>  <Q_VSA_FPNEG>
0.1969

>  <Q_VSA_FPOL>
0.500791

>  <Q_VSA_FPOS>
0.523941

>  <Q_VSA_FPPOS>
0.303891

>  <Q_VSA_HYD>
190.631

>  <Q_VSA_NEG>
181.79

>  <Q_VSA_PNEG>
75.1892

>  <Q_VSA_POL>
191.235

>  <Q_VSA_POS>
200.075

>  <Q_VSA_PPOS>
116.045

>  <RPC+>
0.122251

>  <RPC->
0.122974

>  <lip_acc>
7

>  <lip_don>
1

>  <lip_druglike>
1

>  <lip_violation>
0

>  <opr_brigid>
22

>  <opr_leadlike>
1

>  <opr_nring>
4

>  <opr_nrot>
6

>  <opr_violation>
0

>  <E>
100.33

>  <E_ang>
8.18589

>  <E_ele>
37.7171

>  <E_nb>
83.5933

>  <E_oop>
0.0186573

>  <E_sol>
-25.2684

>  <E_stb>
0.340075

>  <E_str>
6.45966

>  <E_strain>
0.00507592

>  <E_tor>
1.73246

>  <E_vdw>
45.8761

>  <E_rele>
0

>  <E_rnb>
1.98952e-013

>  <E_rsol>
1.98952e-013

>  <E_rvdw>
0

>  <Kier1>
23.168

>  <Kier2>
10.2924

>  <Kier3>
4.8595

>  <KierA1>
15.3343

>  <KierA2>
6.70642

>  <KierA3>
3.13136

>  <KierFlex>
3.42795

>  <logS>
-4.6755

>  <MNDO_dipole>
3.37044

>  <MNDO_E>
-122794

>  <MNDO_Eele>
-893395

>  <MNDO_HF>
-29.0811

>  <MNDO_HOMO>
-9.27

>  <MNDO_IP>
9.27

>  <MNDO_LUMO>
-1.25322

>  <apol>
57.4185

>  <bpol>
27.9415

>  <mr>
10.9422

>  <dipole>
0.821831

>  <dipoleX>
0.631139

>  <dipoleY>
-0.493045

>  <dipoleZ>
0.184328

>  <pmi>
10203.1

>  <pmiX>
7869.68

>  <pmiY>
1767.53

>  <pmiZ>
565.864

>  <rgyr>
5.02296

>  <a_acc>
4

>  <a_acid>
0

>  <a_base>
0

>  <a_don>
1

>  <a_hyd>
19

>  <vsa_acc>
58.4433

>  <vsa_acid>
0

>  <vsa_base>
0

>  <vsa_don>
5.68258

>  <vsa_hyd>
248.62

>  <vsa_other>
54.6571

>  <vsa_pol>
64.1258

>  <PM3_dipole>
3.22463

>  <PM3_E>
-111536

>  <PM3_Eele>
-889416

>  <PM3_HF>
-40.387

>  <PM3_HOMO>
-9.249

>  <PM3_IP>
9.249

>  <PM3_LUMO>
-1.25859

>  <SlogP>
2.34598

>  <SlogP_VSA0>
0

>  <SlogP_VSA1>
22.4538

>  <SlogP_VSA2>
49.7688

>  <SlogP_VSA3>
121.419

>  <SlogP_VSA4>
57.2812

>  <SlogP_VSA5>
0

>  <SlogP_VSA6>
0

>  <SlogP_VSA7>
145.434

>  <SlogP_VSA8>
0

>  <SlogP_VSA9>
14.9601

>  <SMR>
10.6228

>  <SMR_VSA0>
71.5866

>  <SMR_VSA1>
52.2681

>  <SMR_VSA2>
25.9065

>  <SMR_VSA3>
26.1585

>  <SMR_VSA4>
4.7171

>  <SMR_VSA5>
140.717

>  <SMR_VSA6>
89.9635

>  <SMR_VSA7>
0

>  <ASA>
654.238

>  <ASA+>
259.765

>  <ASA->
288.624

>  <ASA_H>
433.504

>  <ASA_P>
220.733

>  <CASA+>
1393.9

>  <CASA->
1549.05

>  <DASA>
28.8587

>  <DCASA>
155.144

>  <FASA+>
0.397051

>  <FASA->
0.441161

>  <FASA_H>
0.66261

>  <FASA_P>
0.33739

>  <FCASA+>
2.13057

>  <FCASA->
2.36771

>  <VSA>
404.027

>  <TPSA>
97.27

>  <density>
0.786444

>  <vdw_area>
381.865

>  <vdw_vol>
514.214

>  <vsurf_A>
1.97107

>  <vsurf_CP>
0.0989647

>  <vsurf_CW1>
2.71465

>  <vsurf_CW2>
2.29294

>  <vsurf_CW3>
1.53341

>  <vsurf_CW4>
0.709156

>  <vsurf_CW5>
0.294046

>  <vsurf_CW6>
0.0799463

>  <vsurf_CW7>
0.00843639

>  <vsurf_CW8>
0

>  <vsurf_D1>
922.5

>  <vsurf_D2>
546.625

>  <vsurf_D3>
404.125

>  <vsurf_D4>
335.25

>  <vsurf_D5>
285.5

>  <vsurf_D6>
234.75

>  <vsurf_D7>
153.125

>  <vsurf_D8>
95.5

>  <vsurf_DD12>
5.40833

>  <vsurf_DD13>
5.24404

>  <vsurf_DD23>
0.5

>  <vsurf_DW12>
0.5

>  <vsurf_DW13>
0.707107

>  <vsurf_DW23>
0.5

>  <vsurf_EDmin1>
-2.69442

>  <vsurf_EDmin2>
-2.66628

>  <vsurf_EDmin3>
-2.63455

>  <vsurf_EWmin1>
-5.67113

>  <vsurf_EWmin2>
-5.41584

>  <vsurf_EWmin3>
-5.38999

>  <vsurf_G>
1.37182

>  <vsurf_HB1>
392.375

>  <vsurf_HB2>
477.375

>  <vsurf_HB3>
392.75

>  <vsurf_HB4>
151.375

>  <vsurf_HB5>
48.75

>  <vsurf_HB6>
10.625

>  <vsurf_HB7>
1.75

>  <vsurf_HB8>
0

>  <vsurf_HL1>
0.135787

>  <vsurf_HL2>
0.0372856

>  <vsurf_ID1>
0.651893

>  <vsurf_ID2>
0.703823

>  <vsurf_ID3>
0.798951

>  <vsurf_ID4>
1.04302

>  <vsurf_ID5>
1.29886

>  <vsurf_ID6>
1.18601

>  <vsurf_ID7>
0.997465

>  <vsurf_ID8>
2.33083

>  <vsurf_IW1>
0.817252

>  <vsurf_IW2>
1.44189

>  <vsurf_IW3>
1.68456

>  <vsurf_IW4>
1.62122

>  <vsurf_IW5>
1.47241

>  <vsurf_IW6>
1.1125

>  <vsurf_IW7>
3.06239

>  <vsurf_IW8>
0

>  <vsurf_R>
1.43366

>  <vsurf_S>
600.124

>  <vsurf_V>
860.375

>  <vsurf_W1>
1531.88

>  <vsurf_W2>
953.625

>  <vsurf_W3>
487.375

>  <vsurf_W4>
167.5

>  <vsurf_W5>
54.875

>  <vsurf_W6>
12.5

>  <vsurf_W7>
1.75

>  <vsurf_W8>
0

>  <vsurf_Wp1>
1139.5

>  <vsurf_Wp2>
476.25

>  <vsurf_Wp3>
94.625

>  <vsurf_Wp4>
16.125

>  <vsurf_Wp5>
6.125

>  <vsurf_Wp6>
1.875

>  <vsurf_Wp7>
0

>  <vsurf_Wp8>
0

>  <dens>
1.10266

>  <glob>
0.0544435

>  <std_dim1>
4.85658

>  <std_dim2>
1.39842

>  <std_dim3>
1.13319

>  <vol>
366.75

>  <logP(o/w)>
1.892

$$$$
D5.cdx
  MOE2008           3D

 46 49  0  0  0  0  0  0  0  0999 V2000
   -8.1400   14.5770    0.4960 C   0  0  0  0  0  0  0  0  0  0  0  0
   -9.0290   14.8300    1.0710 H   0  0  0  0  0  0  0  0  0  0  0  0
   -8.2990   14.0950   -0.7980 C   0  0  0  0  0  0  0  0  0  0  0  0
   -9.2900   13.9800   -1.2250 H   0  0  0  0  0  0  0  0  0  0  0  0
   -7.1860   13.7390   -1.5460 C   0  0  0  0  0  0  0  0  0  0  0  0
   -5.9160   13.8880   -0.9840 C   0  0  0  0  0  0  0  0  0  0  0  0
   -5.7010   14.3960    0.3060 C   0  0  0  0  0  0  0  0  0  0  0  0
   -6.8590   14.7270    1.0630 C   0  0  0  0  0  0  0  0  0  0  0  0
   -4.6970   13.5790   -1.5310 N   0  0  0  0  0  0  0  0  0  0  0  0
   -4.5700   13.1850   -2.4550 H   0  0  0  0  0  0  0  0  0  0  0  0
   -3.7020   13.8790   -0.6500 C   0  0  0  0  0  0  0  0  0  0  0  0
   -2.6690   13.7020   -0.9240 H   0  0  0  0  0  0  0  0  0  0  0  0
   -4.2680   14.4190    0.4940 C   0  0  0  0  0  0  0  0  0  0  0  0
   -3.4640   14.9080    1.6110 C   0  0  0  0  0  0  0  0  0  0  0  0
   -2.0670   14.3520    1.8210 C   0  0  0  0  0  0  0  0  0  0  0  0
   -0.9940   15.1500    1.4310 N   0  0  0  0  0  0  0  0  0  0  0  0
    0.3750   14.6700    1.6370 C   0  0  0  0  0  0  0  0  0  0  0  0
    0.8110   15.2910    2.4280 H   0  0  0  0  0  0  0  0  0  0  0  0
    0.3790   13.6330    1.9870 H   0  0  0  0  0  0  0  0  0  0  0  0
    1.2080   14.7920    0.3560 C   0  0  0  0  0  0  0  0  0  0  0  0
    0.8130   14.1120   -0.4090 H   0  0  0  0  0  0  0  0  0  0  0  0
    2.2410   14.4950    0.5440 H   0  0  0  0  0  0  0  0  0  0  0  0
    1.1120   16.1490   -0.2050 N   0  0  0  0  0  0  0  0  0  0  0  0
   -0.2580   16.6150   -0.4360 C   0  0  0  0  0  0  0  0  0  0  0  0
   -0.2720   17.6500   -0.7910 H   0  0  0  0  0  0  0  0  0  0  0  0
   -0.6780   15.9850   -1.2290 H   0  0  0  0  0  0  0  0  0  0  0  0
   -1.1080   16.4920    0.8370 C   0  0  0  0  0  0  0  0  0  0  0  0
   -2.1450   16.7460    0.6070 H   0  0  0  0  0  0  0  0  0  0  0  0
   -0.7510   17.2000    1.5950 H   0  0  0  0  0  0  0  0  0  0  0  0
    2.1780   16.9770   -0.5450 C   0  0  0  0  0  0  0  0  0  0  0  0
    3.5490   16.5530   -0.1940 C   0  0  0  0  0  0  0  0  0  0  0  0
    3.9510   16.5200    1.1450 C   0  0  0  0  0  0  0  0  0  0  0  0
    3.2590   16.7850    1.9390 H   0  0  0  0  0  0  0  0  0  0  0  0
    5.2600   16.1500    1.4570 C   0  0  0  0  0  0  0  0  0  0  0  0
    5.5850   16.1180    2.4940 H   0  0  0  0  0  0  0  0  0  0  0  0
    6.1580   15.8320    0.4360 C   0  0  0  0  0  0  0  0  0  0  0  0
    7.1790   15.5490    0.6820 H   0  0  0  0  0  0  0  0  0  0  0  0
    5.7560   15.8890   -0.9010 C   0  0  0  0  0  0  0  0  0  0  0  0
    6.4650   15.6540   -1.6910 H   0  0  0  0  0  0  0  0  0  0  0  0
    4.4500   16.2570   -1.2210 C   0  0  0  0  0  0  0  0  0  0  0  0
    4.1400   16.3160   -2.2610 H   0  0  0  0  0  0  0  0  0  0  0  0
   -3.8240   15.7860    2.3870 O   0  0  0  0  0  0  0  0  0  0  0  0
   -1.9780   13.2300    2.3090 O   0  0  0  0  0  0  0  0  0  0  0  0
    2.0610   18.0530   -1.1240 O   0  0  0  0  0  0  0  0  0  0  0  0
   -6.8200   15.3170    2.8670 Br  0  0  0  0  0  0  0  0  0  0  0  0
   -7.3490   13.2540   -2.7850 F   0  0  0  0  0  0  0  0  0  0  0  0
  1  2  1  0  0  0  0
  1  3  1  0  0  0  0
  1  8  2  0  0  0  0
  3  4  1  0  0  0  0
  3  5  2  0  0  0  0
  5  6  1  0  0  0  0
  5 46  1  0  0  0  0
  6  7  2  0  0  0  0
  6  9  1  0  0  0  0
  7  8  1  0  0  0  0
  7 13  1  0  0  0  0
  8 45  1  0  0  0  0
  9 10  1  0  0  0  0
  9 11  1  0  0  0  0
 11 12  1  0  0  0  0
 11 13  2  0  0  0  0
 13 14  1  0  0  0  0
 14 15  1  0  0  0  0
 14 42  2  0  0  0  0
 15 16  1  0  0  0  0
 15 43  2  0  0  0  0
 16 17  1  0  0  0  0
 16 27  1  0  0  0  0
 17 18  1  0  0  0  0
 17 19  1  0  0  0  0
 17 20  1  0  0  0  0
 20 21  1  0  0  0  0
 20 22  1  0  0  0  0
 20 23  1  0  0  0  0
 23 24  1  0  0  0  0
 23 30  1  0  0  0  0
 24 25  1  0  0  0  0
 24 26  1  0  0  0  0
 24 27  1  0  0  0  0
 27 28  1  0  0  0  0
 27 29  1  0  0  0  0
 30 31  1  0  0  0  0
 30 44  2  0  0  0  0
 31 32  1  0  0  0  0
 31 40  2  0  0  0  0
 32 33  1  0  0  0  0
 32 34  2  0  0  0  0
 34 35  1  0  0  0  0
 34 36  1  0  0  0  0
 36 37  1  0  0  0  0
 36 38  2  0  0  0  0
 38 39  1  0  0  0  0
 38 40  1  0  0  0  0
 40 41  1  0  0  0  0
M  END
>  <Activity>
8.0861

>  <AM1_dipole>
5.06227

>  <AM1_E>
-123161

>  <AM1_Eele>
-886793

>  <AM1_HF>
-20.7751

>  <AM1_HOMO>
-8.99364

>  <AM1_IP>
8.99364

>  <AM1_LUMO>
-0.8782

>  <diameter>
15

>  <petitjean>
0.466667

>  <petitjeanSC>
0.875

>  <radius>
8

>  <VDistEq>
3.69068

>  <VDistMa>
9.39588

>  <weinerPath>
2420

>  <weinerPol>
50

>  <BCUT_PEOE_0>
-2.71188

>  <BCUT_PEOE_1>
-0.639703

>  <BCUT_PEOE_2>
0.633253

>  <BCUT_PEOE_3>
2.65027

>  <BCUT_SLOGP_0>
-2.86001

>  <BCUT_SLOGP_1>
-0.53808

>  <BCUT_SLOGP_2>
0.805915

>  <BCUT_SLOGP_3>
2.50359

>  <BCUT_SMR_0>
-2.43203

>  <BCUT_SMR_1>
-0.433001

>  <BCUT_SMR_2>
0.854311

>  <BCUT_SMR_3>
2.92027

>  <GCUT_PEOE_0>
-0.853725

>  <GCUT_PEOE_1>
-0.403742

>  <GCUT_PEOE_2>
0.080099

>  <GCUT_PEOE_3>
2.65237

>  <GCUT_SLOGP_0>
-0.976481

>  <GCUT_SLOGP_1>
-0.312024

>  <GCUT_SLOGP_2>
0.209159

>  <GCUT_SLOGP_3>
2.64114

>  <GCUT_SMR_0>
-0.508905

>  <GCUT_SMR_1>
-0.216057

>  <GCUT_SMR_2>
0.239277

>  <GCUT_SMR_3>
2.92714

>  <a_aro>
15

>  <a_count>
46

>  <a_IC>
82.8485

>  <a_ICM>
1.80106

>  <a_nH>
17

>  <b_1rotN>
5

>  <b_1rotR>
0.15625

>  <b_ar>
16

>  <b_count>
49

>  <b_double>
3

>  <b_rotN>
5

>  <b_rotR>
0.15625

>  <b_single>
30

>  <b_triple>
0

>  <chi0v>
16.9083

>  <chi0v_C>
11.9472

>  <chi1v>
9.89418

>  <chi1v_C>
5.86004

>  <chiral>
0

>  <chiral_u>
0

>  <nmol>
1

>  <reactive>
0

>  <rings>
4

>  <Weight>
458.287

>  <a_heavy>
29

>  <a_nB>
0

>  <a_nBr>
1

>  <a_nC>
21

>  <a_nCl>
0

>  <a_nF>
1

>  <a_nI>
0

>  <a_nN>
3

>  <a_nO>
3

>  <a_nP>
0

>  <a_nS>
0

>  <b_heavy>
32

>  <chi0>
20.5432

>  <chi0_C>
13.6814

>  <chi1>
13.9692

>  <chi1_C>
7.87457

>  <FCharge>
0

>  <VAdjEq>
0.388286

>  <VAdjMa>
6

>  <zagreb>
156

>  <balabanJ>
1.30569

>  <PEOE_PC+>
2.44076

>  <PEOE_PC->
-2.44076

>  <PEOE_RPC+>
0.120905

>  <PEOE_RPC->
0.146555

>  <PEOE_VSA+0>
76.1845

>  <PEOE_VSA+1>
77.1543

>  <PEOE_VSA+2>
9.02085

>  <PEOE_VSA+3>
8.61901

>  <PEOE_VSA+4>
0

>  <PEOE_VSA+5>
34.3576

>  <PEOE_VSA+6>
0

>  <PEOE_VSA-0>
92.6445

>  <PEOE_VSA-1>
36.7647

>  <PEOE_VSA-2>
0

>  <PEOE_VSA-3>
0

>  <PEOE_VSA-4>
11.9086

>  <PEOE_VSA-5>
40.7008

>  <PEOE_VSA-6>
0.136891

>  <PEOE_VSA_FHYD>
0.775211

>  <PEOE_VSA_FNEG>
0.470089

>  <PEOE_VSA_FPNEG>
0.136122

>  <PEOE_VSA_FPOL>
0.224789

>  <PEOE_VSA_FPOS>
0.529911

>  <PEOE_VSA_FPPOS>
0.0886666

>  <PEOE_VSA_HYD>
300.388

>  <PEOE_VSA_NEG>
182.155

>  <PEOE_VSA_PNEG>
52.7463

>  <PEOE_VSA_POL>
87.1039

>  <PEOE_VSA_POS>
205.336

>  <PEOE_VSA_PPOS>
34.3576

>  <PC+>
4.92

>  <PC->
-4.921

>  <Q_PC+>
4.92

>  <Q_PC->
-4.921

>  <Q_RPC+>
0.133333

>  <Q_RPC->
0.134119

>  <Q_VSA_FHYD>
0.604656

>  <Q_VSA_FNEG>
0.535941

>  <Q_VSA_FPNEG>
0.148253

>  <Q_VSA_FPOL>
0.395344

>  <Q_VSA_FPOS>
0.464059

>  <Q_VSA_FPPOS>
0.247091

>  <Q_VSA_HYD>
234.299

>  <Q_VSA_NEG>
207.673

>  <Q_VSA_PNEG>
57.4467

>  <Q_VSA_POL>
153.193

>  <Q_VSA_POS>
179.819

>  <Q_VSA_PPOS>
95.7459

>  <RPC+>
0.133333

>  <RPC->
0.134119

>  <lip_acc>
6

>  <lip_don>
1

>  <lip_druglike>
1

>  <lip_violation>
0

>  <opr_brigid>
22

>  <opr_leadlike>
1

>  <opr_nring>
4

>  <opr_nrot>
5

>  <opr_violation>
1

>  <E>
97.831

>  <E_ang>
9.1472

>  <E_ele>
31.6092

>  <E_nb>
77.2072

>  <E_oop>
0.112448

>  <E_sol>
-16.1288

>  <E_stb>
0.480976

>  <E_str>
6.45974

>  <E_strain>
0.00402086

>  <E_tor>
4.42341

>  <E_vdw>
45.598

>  <E_rele>
0

>  <E_rnb>
7.10543e-015

>  <E_rsol>
7.10543e-015

>  <E_rvdw>
0

>  <Kier1>
22.2031

>  <Kier2>
9.6465

>  <Kier3>
4.62109

>  <KierA1>
16.8094

>  <KierA2>
7.22541

>  <KierA3>
3.43406

>  <KierFlex>
4.18809

>  <logS>
-5.41496

>  <MNDO_dipole>
3.66199

>  <MNDO_E>
-123106

>  <MNDO_Eele>
-876138

>  <MNDO_HF>
-53.9675

>  <MNDO_HOMO>
-9.04039

>  <MNDO_IP>
9.04039

>  <MNDO_LUMO>
-0.89756

>  <apol>
57.6085

>  <bpol>
28.5715

>  <mr>
11.1082

>  <dipole>
1.10788

>  <dipoleX>
0.530274

>  <dipoleY>
-0.685978

>  <dipoleZ>
-0.689671

>  <pmi>
11064.1

>  <pmiX>
9239.81

>  <pmiY>
629.61

>  <pmiZ>
1194.71

>  <rgyr>
4.91349

>  <a_acc>
3

>  <a_acid>
0

>  <a_base>
0

>  <a_don>
1

>  <a_hyd>
20

>  <vsa_acc>
40.7008

>  <vsa_acid>
0

>  <vsa_base>
0

>  <vsa_don>
5.68258

>  <vsa_hyd>
292.289

>  <vsa_other>
34.3576

>  <vsa_pol>
46.3833

>  <PM3_dipole>
4.23737

>  <PM3_E>
-113235

>  <PM3_Eele>
-881009

>  <PM3_HF>
-65.422

>  <PM3_HOMO>
-8.99652

>  <PM3_IP>
8.99652

>  <PM3_LUMO>
-0.8831

>  <SlogP>
3.2368

>  <SlogP_VSA0>
0

>  <SlogP_VSA1>
22.4538

>  <SlogP_VSA2>
49.7688

>  <SlogP_VSA3>
73.7583

>  <SlogP_VSA4>
54.0956

>  <SlogP_VSA5>
3.0551

>  <SlogP_VSA6>
0

>  <SlogP_VSA7>
145.434

>  <SlogP_VSA8>
0

>  <SlogP_VSA9>
60.9142

>  <SMR>
10.9213

>  <SMR_VSA0>
71.5866

>  <SMR_VSA1>
21.2087

>  <SMR_VSA2>
28.9617

>  <SMR_VSA3>
6.37115

>  <SMR_VSA4>
4.7171

>  <SMR_VSA5>
140.717

>  <SMR_VSA6>
89.9635

>  <SMR_VSA7>
45.9541

>  <ASA>
643.119

>  <ASA+>
227.792

>  <ASA->
315.454

>  <ASA_H>
495.579

>  <ASA_P>
147.54

>  <CASA+>
1120.74

>  <CASA->
1552.35

>  <DASA>
87.662

>  <DCASA>
431.613

>  <FASA+>
0.354198

>  <FASA->
0.490506

>  <FASA_H>
0.770586

>  <FASA_P>
0.229414

>  <FCASA+>
1.74266

>  <FCASA->
2.41378

>  <VSA>
405.17

>  <TPSA>
73.48

>  <density>
0.885114

>  <vdw_area>
387.492

>  <vdw_vol>
517.772

>  <vsurf_A>
0.916175

>  <vsurf_CP>
0.117542

>  <vsurf_CW1>
2.66177

>  <vsurf_CW2>
2.21369

>  <vsurf_CW3>
1.39107

>  <vsurf_CW4>
0.610889

>  <vsurf_CW5>
0.250669

>  <vsurf_CW6>
0.0801979

>  <vsurf_CW7>
0.00736784

>  <vsurf_CW8>
0

>  <vsurf_D1>
919.625

>  <vsurf_D2>
534.125

>  <vsurf_D3>
391.75

>  <vsurf_D4>
333.25

>  <vsurf_D5>
284.25

>  <vsurf_D6>
234.25

>  <vsurf_D7>
138.5

>  <vsurf_D8>
72

>  <vsurf_DD12>
0.5

>  <vsurf_DD13>
0.5

>  <vsurf_DD23>
0.707107

>  <vsurf_DW12>
0.5

>  <vsurf_DW13>
0.707107

>  <vsurf_DW23>
1.11803

>  <vsurf_EDmin1>
-2.67757

>  <vsurf_EDmin2>
-2.66445

>  <vsurf_EDmin3>
-2.60096

>  <vsurf_EWmin1>
-5.7267

>  <vsurf_EWmin2>
-5.68502

>  <vsurf_EWmin3>
-5.3328

>  <vsurf_G>
1.34817

>  <vsurf_HB1>
329.375

>  <vsurf_HB2>
397.5

>  <vsurf_HB3>
347.125

>  <vsurf_HB4>
122.875

>  <vsurf_HB5>
41.25

>  <vsurf_HB6>
10.875

>  <vsurf_HB7>
1.5

>  <vsurf_HB8>
0

>  <vsurf_HL1>
0.120294

>  <vsurf_HL2>
0.0378845

>  <vsurf_ID1>
1.01921

>  <vsurf_ID2>
1.06878

>  <vsurf_ID3>
1.38708

>  <vsurf_ID4>
1.64189

>  <vsurf_ID5>
1.79838

>  <vsurf_ID6>
1.58683

>  <vsurf_ID7>
0.637475

>  <vsurf_ID8>
1.05721

>  <vsurf_IW1>
0.722816

>  <vsurf_IW2>
0.576667

>  <vsurf_IW3>
0.673721

>  <vsurf_IW4>
0.281671

>  <vsurf_IW5>
0.486061

>  <vsurf_IW6>
0.768844

>  <vsurf_IW7>
2.82015

>  <vsurf_IW8>
0

>  <vsurf_R>
1.45719

>  <vsurf_S>
588.462

>  <vsurf_V>
857.5

>  <vsurf_W1>
1435

>  <vsurf_W2>
859.875

>  <vsurf_W3>
430

>  <vsurf_W4>
138.5

>  <vsurf_W5>
47.125

>  <vsurf_W6>
12.625

>  <vsurf_W7>
1.5

>  <vsurf_W8>
0

>  <vsurf_Wp1>
1105.63

>  <vsurf_Wp2>
462.375

>  <vsurf_Wp3>
82.875

>  <vsurf_Wp4>
15.625

>  <vsurf_Wp5>
5.875

>  <vsurf_Wp6>
1.75

>  <vsurf_Wp7>
0

>  <vsurf_Wp8>
0

>  <dens>
1.22824

>  <glob>
0.0474199

>  <std_dim1>
4.64708

>  <std_dim2>
1.44218

>  <std_dim3>
1.01195

>  <vol>
373.125

>  <logP(o/w)>
3.03

$$$$
D5.cdx
  MOE2008           3D

 46 49  0  0  0  0  0  0  0  0999 V2000
   -7.6230   11.3770   -0.1200 C   0  0  0  0  0  0  0  0  0  0  0  0
   -8.2970   12.1500    0.2330 H   0  0  0  0  0  0  0  0  0  0  0  0
   -8.0840   10.3860   -0.9720 C   0  0  0  0  0  0  0  0  0  0  0  0
   -7.2470    9.3760   -1.4440 C   0  0  0  0  0  0  0  0  0  0  0  0
   -7.6310    8.6090   -2.1080 H   0  0  0  0  0  0  0  0  0  0  0  0
   -5.9090    9.3960   -1.0250 C   0  0  0  0  0  0  0  0  0  0  0  0
   -5.3960   10.3760   -0.1670 C   0  0  0  0  0  0  0  0  0  0  0  0
   -6.2860   11.3780    0.2840 C   0  0  0  0  0  0  0  0  0  0  0  0
   -4.8810    8.5360   -1.3250 N   0  0  0  0  0  0  0  0  0  0  0  0
   -4.9640    7.7260   -1.9260 H   0  0  0  0  0  0  0  0  0  0  0  0
   -3.7350    8.9330   -0.6920 C   0  0  0  0  0  0  0  0  0  0  0  0
   -2.8240    8.3600   -0.8170 H   0  0  0  0  0  0  0  0  0  0  0  0
   -4.0050   10.0740    0.0430 C   0  0  0  0  0  0  0  0  0  0  0  0
   -3.0270   10.7900    0.8570 C   0  0  0  0  0  0  0  0  0  0  0  0
   -1.6250   10.2280    1.0210 C   0  0  0  0  0  0  0  0  0  0  0  0
   -0.6070   10.8170    0.2750 N   0  0  0  0  0  0  0  0  0  0  0  0
    0.7610   10.3080    0.3850 C   0  0  0  0  0  0  0  0  0  0  0  0
    0.8320    9.5270    1.1490 H   0  0  0  0  0  0  0  0  0  0  0  0
    1.0050    9.8500   -0.5810 H   0  0  0  0  0  0  0  0  0  0  0  0
    1.7580   11.4330    0.6950 C   0  0  0  0  0  0  0  0  0  0  0  0
    2.7700   11.0270    0.6480 H   0  0  0  0  0  0  0  0  0  0  0  0
    1.5900   11.8190    1.7070 H   0  0  0  0  0  0  0  0  0  0  0  0
    1.5830   12.5690   -0.2270 N   0  0  0  0  0  0  0  0  0  0  0  0
    0.2080   13.0720   -0.3300 C   0  0  0  0  0  0  0  0  0  0  0  0
   -0.0380   13.5140    0.6430 H   0  0  0  0  0  0  0  0  0  0  0  0
    0.1300   13.8630   -1.0820 H   0  0  0  0  0  0  0  0  0  0  0  0
   -0.7770   11.9430   -0.6550 C   0  0  0  0  0  0  0  0  0  0  0  0
   -0.5800   11.5510   -1.6600 H   0  0  0  0  0  0  0  0  0  0  0  0
   -1.7990   12.3270   -0.6470 H   0  0  0  0  0  0  0  0  0  0  0  0
    2.5840   13.1700   -0.9850 C   0  0  0  0  0  0  0  0  0  0  0  0
    3.9920   12.7890   -0.7390 C   0  0  0  0  0  0  0  0  0  0  0  0
    4.7370   12.2430   -1.7880 C   0  0  0  0  0  0  0  0  0  0  0  0
    4.2790   12.0820   -2.7610 H   0  0  0  0  0  0  0  0  0  0  0  0
    6.0740   11.9070   -1.5790 C   0  0  0  0  0  0  0  0  0  0  0  0
    6.6600   11.4780   -2.3880 H   0  0  0  0  0  0  0  0  0  0  0  0
    6.6630   12.1290   -0.3320 C   0  0  0  0  0  0  0  0  0  0  0  0
    7.7060   11.8680   -0.1730 H   0  0  0  0  0  0  0  0  0  0  0  0
    5.9210   12.6940    0.7070 C   0  0  0  0  0  0  0  0  0  0  0  0
    6.3890   12.8760    1.6710 H   0  0  0  0  0  0  0  0  0  0  0  0
    4.5830   13.0340    0.5050 C   0  0  0  0  0  0  0  0  0  0  0  0
    4.0130   13.4910    1.3090 H   0  0  0  0  0  0  0  0  0  0  0  0
   -3.2610   11.8470    1.4350 O   0  0  0  0  0  0  0  0  0  0  0  0
   -1.4830    9.2860    1.7940 O   0  0  0  0  0  0  0  0  0  0  0  0
    2.3800   14.0080   -1.8590 O   0  0  0  0  0  0  0  0  0  0  0  0
   -5.8860   12.3550    1.1110 F   0  0  0  0  0  0  0  0  0  0  0  0
   -9.3690   10.3970   -1.3520 F   0  0  0  0  0  0  0  0  0  0  0  0
  1  2  1  0  0  0  0
  1  3  1  0  0  0  0
  1  8  2  0  0  0  0
  3  4  2  0  0  0  0
  3 46  1  0  0  0  0
  4  5  1  0  0  0  0
  4  6  1  0  0  0  0
  6  7  2  0  0  0  0
  6  9  1  0  0  0  0
  7  8  1  0  0  0  0
  7 13  1  0  0  0  0
  8 45  1  0  0  0  0
  9 10  1  0  0  0  0
  9 11  1  0  0  0  0
 11 12  1  0  0  0  0
 11 13  2  0  0  0  0
 13 14  1  0  0  0  0
 14 15  1  0  0  0  0
 14 42  2  0  0  0  0
 15 16  1  0  0  0  0
 15 43  2  0  0  0  0
 16 17  1  0  0  0  0
 16 27  1  0  0  0  0
 17 18  1  0  0  0  0
 17 19  1  0  0  0  0
 17 20  1  0  0  0  0
 20 21  1  0  0  0  0
 20 22  1  0  0  0  0
 20 23  1  0  0  0  0
 23 24  1  0  0  0  0
 23 30  1  0  0  0  0
 24 25  1  0  0  0  0
 24 26  1  0  0  0  0
 24 27  1  0  0  0  0
 27 28  1  0  0  0  0
 27 29  1  0  0  0  0
 30 31  1  0  0  0  0
 30 44  2  0  0  0  0
 31 32  1  0  0  0  0
 31 40  2  0  0  0  0
 32 33  1  0  0  0  0
 32 34  2  0  0  0  0
 34 35  1  0  0  0  0
 34 36  1  0  0  0  0
 36 37  1  0  0  0  0
 36 38  2  0  0  0  0
 38 39  1  0  0  0  0
 38 40  1  0  0  0  0
 40 41  1  0  0  0  0
M  END
>  <Activity>
9.3767

>  <AM1_dipole>
6.08126

>  <AM1_E>
-126205

>  <AM1_Eele>
-889459

>  <AM1_HF>
-84.5952

>  <AM1_HOMO>
-8.9849

>  <AM1_IP>
8.9849

>  <AM1_LUMO>
-0.79544

>  <diameter>
16

>  <petitjean>
0.5

>  <petitjeanSC>
1

>  <radius>
8

>  <VDistEq>
3.71662

>  <VDistMa>
9.39314

>  <weinerPath>
2440

>  <weinerPol>
49

>  <BCUT_PEOE_0>
-2.71188

>  <BCUT_PEOE_1>
-0.643958

>  <BCUT_PEOE_2>
0.635421

>  <BCUT_PEOE_3>
2.65029

>  <BCUT_SLOGP_0>
-2.86001

>  <BCUT_SLOGP_1>
-0.53808

>  <BCUT_SLOGP_2>
0.796443

>  <BCUT_SLOGP_3>
2.50331

>  <BCUT_SMR_0>
-2.43203

>  <BCUT_SMR_1>
-0.433097

>  <BCUT_SMR_2>
0.826284

>  <BCUT_SMR_3>
2.92023

>  <GCUT_PEOE_0>
-0.859328

>  <GCUT_PEOE_1>
-0.417024

>  <GCUT_PEOE_2>
0.080099

>  <GCUT_PEOE_3>
2.65395

>  <GCUT_SLOGP_0>
-0.976488

>  <GCUT_SLOGP_1>
-0.336994

>  <GCUT_SLOGP_2>
0.232269

>  <GCUT_SLOGP_3>
2.62812

>  <GCUT_SMR_0>
-0.508913

>  <GCUT_SMR_1>
-0.216057

>  <GCUT_SMR_2>
0.193051

>  <GCUT_SMR_3>
2.91996

>  <a_aro>
15

>  <a_count>
46

>  <a_IC>
80.8485

>  <a_ICM>
1.75758

>  <a_nH>
17

>  <b_1rotN>
5

>  <b_1rotR>
0.15625

>  <b_ar>
16

>  <b_count>
49

>  <b_double>
3

>  <b_rotN>
5

>  <b_rotR>
0.15625

>  <b_single>
30

>  <b_triple>
0

>  <chi0v>
15.3223

>  <chi0v_C>
11.9472

>  <chi1v>
9.0952

>  <chi1v_C>
5.85406

>  <chiral>
0

>  <chiral_u>
0

>  <nmol>
1

>  <reactive>
0

>  <rings>
4

>  <Weight>
397.381

>  <a_heavy>
29

>  <a_nB>
0

>  <a_nBr>
0

>  <a_nC>
21

>  <a_nCl>
0

>  <a_nF>
2

>  <a_nI>
0

>  <a_nN>
3

>  <a_nO>
3

>  <a_nP>
0

>  <a_nS>
0

>  <b_heavy>
32

>  <chi0>
20.5432

>  <chi0_C>
13.6814

>  <chi1>
13.9524

>  <chi1_C>
7.85774

>  <FCharge>
0

>  <VAdjEq>
0.388286

>  <VAdjMa>
6

>  <zagreb>
156

>  <balabanJ>
1.29585

>  <PEOE_PC+>
2.53465

>  <PEOE_PC->
-2.53465

>  <PEOE_RPC+>
0.116427

>  <PEOE_RPC->
0.141954

>  <PEOE_VSA+0>
86.1872

>  <PEOE_VSA+1>
77.1543

>  <PEOE_VSA+2>
18.0417

>  <PEOE_VSA+3>
8.61901

>  <PEOE_VSA+4>
0

>  <PEOE_VSA+5>
34.3576

>  <PEOE_VSA+6>
0

>  <PEOE_VSA-0>
36.7647

>  <PEOE_VSA-1>
36.7647

>  <PEOE_VSA-2>
0

>  <PEOE_VSA-3>
0

>  <PEOE_VSA-4>
23.8173

>  <PEOE_VSA-5>
40.7008

>  <PEOE_VSA-6>
0.136891

>  <PEOE_VSA_FHYD>
0.726895

>  <PEOE_VSA_FNEG>
0.381152

>  <PEOE_VSA_FPNEG>
0.178337

>  <PEOE_VSA_FPOL>
0.273105

>  <PEOE_VSA_FPOS>
0.618848

>  <PEOE_VSA_FPPOS>
0.094768

>  <PEOE_VSA_HYD>
263.532

>  <PEOE_VSA_NEG>
138.184

>  <PEOE_VSA_PNEG>
64.6549

>  <PEOE_VSA_POL>
99.0125

>  <PEOE_VSA_POS>
224.36

>  <PEOE_VSA_PPOS>
34.3576

>  <PC+>
4.999

>  <PC->
-5

>  <Q_PC+>
4.999

>  <Q_PC->
-5

>  <Q_RPC+>
0.131226

>  <Q_RPC->
0.132

>  <Q_VSA_FHYD>
0.577451

>  <Q_VSA_FNEG>
0.485338

>  <Q_VSA_FPNEG>
0.158454

>  <Q_VSA_FPOL>
0.422549

>  <Q_VSA_FPOS>
0.514662

>  <Q_VSA_FPPOS>
0.264094

>  <Q_VSA_HYD>
209.352

>  <Q_VSA_NEG>
175.956

>  <Q_VSA_PNEG>
57.4467

>  <Q_VSA_POL>
153.193

>  <Q_VSA_POS>
186.588

>  <Q_VSA_PPOS>
95.7459

>  <RPC+>
0.131226

>  <RPC->
0.132

>  <lip_acc>
6

>  <lip_don>
1

>  <lip_druglike>
1

>  <lip_violation>
0

>  <opr_brigid>
22

>  <opr_leadlike>
1

>  <opr_nring>
4

>  <opr_nrot>
5

>  <opr_violation>
0

>  <E>
90.3032

>  <E_ang>
8.14958

>  <E_ele>
29.1699

>  <E_nb>
73.8921

>  <E_oop>
0.0190515

>  <E_sol>
-19.8414

>  <E_stb>
0.438578

>  <E_str>
5.97461

>  <E_strain>
0.00376696

>  <E_tor>
1.82925

>  <E_vdw>
44.7222

>  <E_rele>
0

>  <E_rnb>
0

>  <E_rsol>
0

>  <E_rvdw>
0

>  <Kier1>
22.2031

>  <Kier2>
9.6465

>  <Kier3>
4.76896

>  <KierA1>
15.2245

>  <KierA2>
6.51766

>  <KierA3>
3.18716

>  <KierFlex>
3.42166

>  <logS>
-4.61955

>  <MNDO_dipole>
6.22955

>  <MNDO_E>
-126147

>  <MNDO_Eele>
-879804

>  <MNDO_HF>
-104.964

>  <MNDO_HOMO>
-9.12516

>  <MNDO_IP>
9.12516

>  <MNDO_LUMO>
-0.9581

>  <apol>
55.1155

>  <bpol>
28.4845

>  <mr>
10.3924

>  <dipole>
1.51696

>  <dipoleX>
0.641846

>  <dipoleY>
-1.23007

>  <dipoleZ>
-0.613301

>  <pmi>
9897.61

>  <pmiX>
8636.04

>  <pmiY>
829.437

>  <pmiZ>
432.135

>  <rgyr>
4.9907

>  <a_acc>
3

>  <a_acid>
0

>  <a_base>
0

>  <a_don>
1

>  <a_hyd>
20

>  <vsa_acc>
40.7008

>  <vsa_acid>
0

>  <vsa_base>
0

>  <vsa_don>
5.68258

>  <vsa_hyd>
267.341

>  <vsa_other>
34.3576

>  <vsa_pol>
46.3833

>  <PM3_dipole>
5.89309

>  <PM3_E>
-115239

>  <PM3_Eele>
-875307

>  <PM3_HF>
-118.87

>  <PM3_HOMO>
-9.09889

>  <PM3_IP>
9.09889

>  <PM3_LUMO>
-0.90337

>  <SlogP>
2.6134

>  <SlogP_VSA0>
0

>  <SlogP_VSA1>
22.4538

>  <SlogP_VSA2>
58.8898

>  <SlogP_VSA3>
73.7583

>  <SlogP_VSA4>
54.0956

>  <SlogP_VSA5>
0

>  <SlogP_VSA6>
0

>  <SlogP_VSA7>
145.434

>  <SlogP_VSA8>
0

>  <SlogP_VSA9>
29.9202

>  <SMR>
10.1471

>  <SMR_VSA0>
71.5866

>  <SMR_VSA1>
36.1689

>  <SMR_VSA2>
35.0276

>  <SMR_VSA3>
6.37115

>  <SMR_VSA4>
4.7171

>  <SMR_VSA5>
140.717

>  <SMR_VSA6>
89.9635

>  <SMR_VSA7>
0

>  <ASA>
631.53

>  <ASA+>
246.263

>  <ASA->
277.429

>  <ASA_H>
476.582

>  <ASA_P>
154.947

>  <CASA+>
1231.07

>  <CASA->
1387.14

>  <DASA>
31.1655

>  <DCASA>
156.074

>  <FASA+>
0.389947

>  <FASA->
0.439296

>  <FASA_H>
0.754647

>  <FASA_P>
0.245353

>  <FCASA+>
1.94934

>  <FCASA->
2.19648

>  <VSA>
383.689

>  <TPSA>
73.48

>  <density>
0.807806

>  <vdw_area>
362.544

>  <vdw_vol>
491.926

>  <vsurf_A>
2.61261

>  <vsurf_CP>
0.0992364

>  <vsurf_CW1>
2.70375

>  <vsurf_CW2>
2.31248

>  <vsurf_CW3>
1.62781

>  <vsurf_CW4>
0.680202

>  <vsurf_CW5>
0.252244

>  <vsurf_CW6>
0.0704383

>  <vsurf_CW7>
0.00458022

>  <vsurf_CW8>
0

>  <vsurf_D1>
794.25

>  <vsurf_D2>
464.5

>  <vsurf_D3>
341

>  <vsurf_D4>
279.125

>  <vsurf_D5>
236.125

>  <vsurf_D6>
190.5

>  <vsurf_D7>
115.25

>  <vsurf_D8>
65

>  <vsurf_DD12>
5.40833

>  <vsurf_DD13>
0.866025

>  <vsurf_DD23>
6.12372

>  <vsurf_DW12>
0.707107

>  <vsurf_DW13>
5.33854

>  <vsurf_DW23>
4.84768

>  <vsurf_EDmin1>
-2.67769

>  <vsurf_EDmin2>
-2.59863

>  <vsurf_EDmin3>
-2.58899

>  <vsurf_EWmin1>
-5.69355

>  <vsurf_EWmin2>
-5.38481

>  <vsurf_EWmin3>
-5.30775

>  <vsurf_G>
1.35656

>  <vsurf_HB1>
358.5

>  <vsurf_HB2>
472.875

>  <vsurf_HB3>
398.25

>  <vsurf_HB4>
130.875

>  <vsurf_HB5>
38.125

>  <vsurf_HB6>
9.5

>  <vsurf_HB7>
0.875

>  <vsurf_HB8>
0

>  <vsurf_HL1>
0.131598

>  <vsurf_HL2>
0.038961

>  <vsurf_ID1>
1.76116

>  <vsurf_ID2>
1.71874

>  <vsurf_ID3>
2.08152

>  <vsurf_ID4>
2.6795

>  <vsurf_ID5>
3.18376

>  <vsurf_ID6>
3.31716

>  <vsurf_ID7>
1.82393

>  <vsurf_ID8>
1.19083

>  <vsurf_IW1>
0.181323

>  <vsurf_IW2>
1.12721

>  <vsurf_IW3>
1.71192

>  <vsurf_IW4>
1.27501

>  <vsurf_IW5>
1.10116

>  <vsurf_IW6>
1.58887

>  <vsurf_IW7>
3.27816

>  <vsurf_IW8>
0

>  <vsurf_R>
1.42631

>  <vsurf_S>
574.383

>  <vsurf_V>
819.25

>  <vsurf_W1>
1415.63

>  <vsurf_W2>
914.625

>  <vsurf_W3>
476.75

>  <vsurf_W4>
147.5

>  <vsurf_W5>
44.875

>  <vsurf_W6>
10.875

>  <vsurf_W7>
0.875

>  <vsurf_W8>
0

>  <vsurf_Wp1>
1057.13

>  <vsurf_Wp2>
441.75

>  <vsurf_Wp3>
78.5

>  <vsurf_Wp4>
16.625

>  <vsurf_Wp5>
6.75

>  <vsurf_Wp6>
1.375

>  <vsurf_Wp7>
0

>  <vsurf_Wp8>
0

>  <dens>
1.13497

>  <glob>
0.0546626

>  <std_dim1>
4.772

>  <std_dim2>
1.34136

>  <std_dim3>
1.11569

>  <vol>
350.125

>  <logP(o/w)>
2.461

$$$$
D5.cdx
  MOE2008           3D

 46 49  0  0  0  0  0  0  0  0999 V2000
   -6.8900    7.2340   -1.5260 C   0  0  0  0  0  0  0  0  0  0  0  0
   -6.8160    6.2980   -2.5450 C   0  0  0  0  0  0  0  0  0  0  0  0
   -5.7070    5.4670   -2.6610 C   0  0  0  0  0  0  0  0  0  0  0  0
   -4.6750    5.6020   -1.7260 C   0  0  0  0  0  0  0  0  0  0  0  0
   -4.7170    6.5340   -0.6820 C   0  0  0  0  0  0  0  0  0  0  0  0
   -5.8580    7.3640   -0.5930 C   0  0  0  0  0  0  0  0  0  0  0  0
   -3.4870    4.9200   -1.6250 N   0  0  0  0  0  0  0  0  0  0  0  0
   -3.1920    4.1850   -2.2550 H   0  0  0  0  0  0  0  0  0  0  0  0
   -2.7720    5.3840   -0.5550 C   0  0  0  0  0  0  0  0  0  0  0  0
   -1.8050    4.9520   -0.3250 H   0  0  0  0  0  0  0  0  0  0  0  0
   -3.4980    6.3870    0.0640 C   0  0  0  0  0  0  0  0  0  0  0  0
   -3.0540    7.1300    1.2400 C   0  0  0  0  0  0  0  0  0  0  0  0
   -1.6480    6.9230    1.7770 C   0  0  0  0  0  0  0  0  0  0  0  0
   -0.6540    7.7480    1.2540 N   0  0  0  0  0  0  0  0  0  0  0  0
    0.7310    7.5690    1.6930 C   0  0  0  0  0  0  0  0  0  0  0  0
    0.8870    8.2580    2.5320 H   0  0  0  0  0  0  0  0  0  0  0  0
    0.8800    6.5520    2.0700 H   0  0  0  0  0  0  0  0  0  0  0  0
    1.7300    7.8690    0.5720 C   0  0  0  0  0  0  0  0  0  0  0  0
    1.5990    7.1410   -0.2370 H   0  0  0  0  0  0  0  0  0  0  0  0
    2.7530    7.7810    0.9500 H   0  0  0  0  0  0  0  0  0  0  0  0
    1.5330    9.2020   -0.0200 N   0  0  0  0  0  0  0  0  0  0  0  0
    0.2250    9.8290    0.1820 C   0  0  0  0  0  0  0  0  0  0  0  0
    0.2920   10.3950    1.1200 H   0  0  0  0  0  0  0  0  0  0  0  0
    0.0210   10.5480   -0.6190 H   0  0  0  0  0  0  0  0  0  0  0  0
   -0.9110    8.8070    0.2690 C   0  0  0  0  0  0  0  0  0  0  0  0
   -1.0370    8.3080   -0.6990 H   0  0  0  0  0  0  0  0  0  0  0  0
   -1.8510    9.3140    0.5080 H   0  0  0  0  0  0  0  0  0  0  0  0
    2.5070    9.9130   -0.7210 C   0  0  0  0  0  0  0  0  0  0  0  0
    3.7990    9.2530   -1.0100 C   0  0  0  0  0  0  0  0  0  0  0  0
    3.8540    8.1230   -1.8330 C   0  0  0  0  0  0  0  0  0  0  0  0
    2.9500    7.7080   -2.2680 H   0  0  0  0  0  0  0  0  0  0  0  0
    5.0890    7.5350   -2.1090 C   0  0  0  0  0  0  0  0  0  0  0  0
    5.1440    6.6550   -2.7460 H   0  0  0  0  0  0  0  0  0  0  0  0
    6.2590    8.0820   -1.5780 C   0  0  0  0  0  0  0  0  0  0  0  0
    7.2200    7.6240   -1.7990 H   0  0  0  0  0  0  0  0  0  0  0  0
    6.2010    9.2230   -0.7760 C   0  0  0  0  0  0  0  0  0  0  0  0
    7.1160    9.6530   -0.3770 H   0  0  0  0  0  0  0  0  0  0  0  0
    4.9710    9.8170   -0.4950 C   0  0  0  0  0  0  0  0  0  0  0  0
    4.9270   10.7120    0.1190 H   0  0  0  0  0  0  0  0  0  0  0  0
   -3.7510    7.9500    1.8290 O   0  0  0  0  0  0  0  0  0  0  0  0
   -1.4780    6.0400    2.6100 O   0  0  0  0  0  0  0  0  0  0  0  0
    2.3690   11.0700   -1.1070 O   0  0  0  0  0  0  0  0  0  0  0  0
   -5.9790    8.2930    0.3650 F   0  0  0  0  0  0  0  0  0  0  0  0
   -7.9650    8.0300   -1.4350 F   0  0  0  0  0  0  0  0  0  0  0  0
   -7.8190    6.1940   -3.4290 F   0  0  0  0  0  0  0  0  0  0  0  0
   -5.6360    4.5680   -3.6510 F   0  0  0  0  0  0  0  0  0  0  0  0
  1  2  1  0  0  0  0
  1  6  2  0  0  0  0
  1 44  1  0  0  0  0
  2  3  2  0  0  0  0
  2 45  1  0  0  0  0
  3  4  1  0  0  0  0
  3 46  1  0  0  0  0
  4  5  2  0  0  0  0
  4  7  1  0  0  0  0
  5  6  1  0  0  0  0
  5 11  1  0  0  0  0
  6 43  1  0  0  0  0
  7  8  1  0  0  0  0
  7  9  1  0  0  0  0
  9 10  1  0  0  0  0
  9 11  2  0  0  0  0
 11 12  1  0  0  0  0
 12 13  1  0  0  0  0
 12 40  2  0  0  0  0
 13 14  1  0  0  0  0
 13 41  2  0  0  0  0
 14 15  1  0  0  0  0
 14 25  1  0  0  0  0
 15 16  1  0  0  0  0
 15 17  1  0  0  0  0
 15 18  1  0  0  0  0
 18 19  1  0  0  0  0
 18 20  1  0  0  0  0
 18 21  1  0  0  0  0
 21 22  1  0  0  0  0
 21 28  1  0  0  0  0
 22 23  1  0  0  0  0
 22 24  1  0  0  0  0
 22 25  1  0  0  0  0
 25 26  1  0  0  0  0
 25 27  1  0  0  0  0
 28 29  1  0  0  0  0
 28 42  2  0  0  0  0
 29 30  1  0  0  0  0
 29 38  2  0  0  0  0
 30 31  1  0  0  0  0
 30 32  2  0  0  0  0
 32 33  1  0  0  0  0
 32 34  1  0  0  0  0
 34 35  1  0  0  0  0
 34 36  2  0  0  0  0
 36 37  1  0  0  0  0
 36 38  1  0  0  0  0
 38 39  1  0  0  0  0
M  END
>  <Activity>
8.7695

>  <AM1_dipole>
7.05894

>  <AM1_E>
-147938

>  <AM1_Eele>
-1.02677e+006

>  <AM1_HF>
-165.411

>  <AM1_HOMO>
-9.25391

>  <AM1_IP>
9.25391

>  <AM1_LUMO>
-1.24068

>  <diameter>
16

>  <petitjean>
0.5

>  <petitjeanSC>
1

>  <radius>
8

>  <VDistEq>
3.74659

>  <VDistMa>
9.59025

>  <weinerPath>
2871

>  <weinerPol>
57

>  <BCUT_PEOE_0>
-2.71188

>  <BCUT_PEOE_1>
-0.647623

>  <BCUT_PEOE_2>
0.623388

>  <BCUT_PEOE_3>
2.65034

>  <BCUT_SLOGP_0>
-2.86001

>  <BCUT_SLOGP_1>
-0.53808

>  <BCUT_SLOGP_2>
0.810923

>  <BCUT_SLOGP_3>
2.50325

>  <BCUT_SMR_0>
-2.43203

>  <BCUT_SMR_1>
-0.432843

>  <BCUT_SMR_2>
0.826324

>  <BCUT_SMR_3>
2.92023

>  <GCUT_PEOE_0>
-0.852855

>  <GCUT_PEOE_1>
-0.449363

>  <GCUT_PEOE_2>
0.0795312

>  <GCUT_PEOE_3>
2.66034

>  <GCUT_SLOGP_0>
-0.976494

>  <GCUT_SLOGP_1>
-0.339689

>  <GCUT_SLOGP_2>
0.254613

>  <GCUT_SLOGP_3>
2.62652

>  <GCUT_SMR_0>
-0.508913

>  <GCUT_SMR_1>
-0.216057

>  <GCUT_SMR_2>
0.193051

>  <GCUT_SMR_3>
2.9197

>  <a_aro>
15

>  <a_count>
46

>  <a_IC>
85.732

>  <a_ICM>
1.86374

>  <a_nH>
15

>  <b_1rotN>
5

>  <b_1rotR>
0.147059

>  <b_ar>
16

>  <b_count>
49

>  <b_double>
3

>  <b_rotN>
5

>  <b_rotR>
0.147059

>  <b_single>
30

>  <b_triple>
0

>  <chi0v>
15.9236

>  <chi0v_C>
11.7925

>  <chi1v>
9.31846

>  <chi1v_C>
5.69936

>  <chiral>
0

>  <chiral_u>
0

>  <nmol>
1

>  <reactive>
0

>  <rings>
4

>  <Weight>
433.361

>  <a_heavy>
31

>  <a_nB>
0

>  <a_nBr>
0

>  <a_nC>
21

>  <a_nCl>
0

>  <a_nF>
4

>  <a_nI>
0

>  <a_nN>
3

>  <a_nO>
3

>  <a_nP>
0

>  <a_nS>
0

>  <b_heavy>
34

>  <chi0>
22.2837

>  <chi0_C>
13.4219

>  <chi1>
14.8074

>  <chi1_C>
7.55808

>  <FCharge>
0

>  <VAdjEq>
0.368752

>  <VAdjMa>
6.08746

>  <zagreb>
168

>  <balabanJ>
1.33308

>  <PEOE_PC+>
2.92055

>  <PEOE_PC->
-2.92055

>  <PEOE_RPC+>
0.101043

>  <PEOE_RPC->
0.122437

>  <PEOE_VSA+0>
71.7238

>  <PEOE_VSA+1>
70.832

>  <PEOE_VSA+2>
0

>  <PEOE_VSA+3>
44.7024

>  <PEOE_VSA+4>
0

>  <PEOE_VSA+5>
34.3576

>  <PEOE_VSA+6>
0

>  <PEOE_VSA-0>
24.5098

>  <PEOE_VSA-1>
36.7647

>  <PEOE_VSA-2>
0

>  <PEOE_VSA-3>
23.8173

>  <PEOE_VSA-4>
23.8173

>  <PEOE_VSA-5>
40.7008

>  <PEOE_VSA-6>
0.136891

>  <PEOE_VSA_FHYD>
0.73338

>  <PEOE_VSA_FNEG>
0.403236

>  <PEOE_VSA_FPNEG>
0.174102

>  <PEOE_VSA_FPOL>
0.26662

>  <PEOE_VSA_FPOS>
0.596764

>  <PEOE_VSA_FPPOS>
0.0925176

>  <PEOE_VSA_HYD>
272.35

>  <PEOE_VSA_NEG>
149.747

>  <PEOE_VSA_PNEG>
64.6549

>  <PEOE_VSA_POL>
99.0125

>  <PEOE_VSA_POS>
221.616

>  <PEOE_VSA_PPOS>
34.3576

>  <PC+>
5.079

>  <PC->
-5.08

>  <Q_PC+>
5.079

>  <Q_PC->
-5.08

>  <Q_RPC+>
0.129159

>  <Q_RPC->
0.129921

>  <Q_VSA_FHYD>
0.587485

>  <Q_VSA_FNEG>
0.471948

>  <Q_VSA_FPNEG>
0.154692

>  <Q_VSA_FPOL>
0.412515

>  <Q_VSA_FPOS>
0.528052

>  <Q_VSA_FPPOS>
0.257823

>  <Q_VSA_HYD>
218.17

>  <Q_VSA_NEG>
175.264

>  <Q_VSA_PNEG>
57.4467

>  <Q_VSA_POL>
153.193

>  <Q_VSA_POS>
196.099

>  <Q_VSA_PPOS>
95.7459

>  <RPC+>
0.129159

>  <RPC->
0.129921

>  <lip_acc>
6

>  <lip_don>
1

>  <lip_druglike>
1

>  <lip_violation>
0

>  <opr_brigid>
22

>  <opr_leadlike>
1

>  <opr_nring>
4

>  <opr_nrot>
5

>  <opr_violation>
0

>  <E>
97.4274

>  <E_ang>
7.08436

>  <E_ele>
35.5949

>  <E_nb>
79.7311

>  <E_oop>
0.0672535

>  <E_sol>
-22.934

>  <E_stb>
0.580527

>  <E_str>
5.71308

>  <E_strain>
0.00418334

>  <E_tor>
4.25106

>  <E_vdw>
44.1362

>  <E_rele>
0

>  <E_rnb>
0

>  <E_rsol>
0

>  <E_rvdw>
0

>  <Kier1>
24.1349

>  <Kier2>
10.092

>  <Kier3>
4.66574

>  <KierA1>
16.7707

>  <KierA2>
6.92048

>  <KierA3>
3.16854

>  <KierFlex>
3.74391

>  <logS>
-5.20951

>  <MNDO_dipole>
7.90903

>  <MNDO_E>
-147605

>  <MNDO_Eele>
-1.0174e+006

>  <MNDO_HF>
-192.602

>  <MNDO_HOMO>
-9.54997

>  <MNDO_IP>
9.54997

>  <MNDO_LUMO>
-1.5964

>  <apol>
54.8959

>  <bpol>
28.7041

>  <mr>
10.451

>  <dipole>
1.93655

>  <dipoleX>
1.38246

>  <dipoleY>
-1.20728

>  <dipoleZ>
-0.617648

>  <pmi>
10364.7

>  <pmiX>
8101.06

>  <pmiY>
1145.05

>  <pmiZ>
1118.58

>  <rgyr>
4.8905

>  <a_acc>
3

>  <a_acid>
0

>  <a_base>
0

>  <a_don>
1

>  <a_hyd>
22

>  <vsa_acc>
40.7008

>  <vsa_acid>
0

>  <vsa_base>
0

>  <vsa_don>
5.68258

>  <vsa_hyd>
277.583

>  <vsa_other>
34.3576

>  <vsa_pol>
46.3833

>  <PM3_dipole>
7.17127

>  <PM3_E>
-134829

>  <PM3_Eele>
-1.00344e+006

>  <PM3_HF>
-199.038

>  <PM3_HOMO>
-9.41564

>  <PM3_IP>
9.41564

>  <PM3_LUMO>
-1.34242

>  <SlogP>
2.8916

>  <SlogP_VSA0>
0

>  <SlogP_VSA1>
22.4538

>  <SlogP_VSA2>
77.1318

>  <SlogP_VSA3>
73.7583

>  <SlogP_VSA4>
54.0956

>  <SlogP_VSA5>
0

>  <SlogP_VSA6>
0

>  <SlogP_VSA7>
110.147

>  <SlogP_VSA8>
0

>  <SlogP_VSA9>
59.8405

>  <SMR>
10.1387

>  <SMR_VSA0>
71.5866

>  <SMR_VSA1>
66.0891

>  <SMR_VSA2>
53.2696

>  <SMR_VSA3>
6.37115

>  <SMR_VSA4>
4.7171

>  <SMR_VSA5>
105.43

>  <SMR_VSA6>
89.9635

>  <SMR_VSA7>
0

>  <ASA>
636.504

>  <ASA+>
229.165

>  <ASA->
303.662

>  <ASA_H>
482.449

>  <ASA_P>
154.055

>  <CASA+>
1163.93

>  <CASA->
1542.6

>  <DASA>
74.4969

>  <DCASA>
378.673

>  <FASA+>
0.360038

>  <FASA->
0.477078

>  <FASA_H>
0.757967

>  <FASA_P>
0.242033

>  <FCASA+>
1.82863

>  <FCASA->
2.42356

>  <VSA>
392.841

>  <TPSA>
73.48

>  <density>
0.869834

>  <vdw_area>
371.362

>  <vdw_vol>
498.211

>  <vsurf_A>
3.62001

>  <vsurf_CP>
0.0979693

>  <vsurf_CW1>
2.68838

>  <vsurf_CW2>
2.31463

>  <vsurf_CW3>
1.74996

>  <vsurf_CW4>
0.784461

>  <vsurf_CW5>
0.265122

>  <vsurf_CW6>
0.0728977

>  <vsurf_CW7>
0.00143348

>  <vsurf_CW8>
0

>  <vsurf_D1>
778.875

>  <vsurf_D2>
454

>  <vsurf_D3>
328.875

>  <vsurf_D4>
263.75

>  <vsurf_D5>
221.375

>  <vsurf_D6>
176.375

>  <vsurf_D7>
106.375

>  <vsurf_D8>
63.125

>  <vsurf_DD12>
4.06202

>  <vsurf_DD13>
3

>  <vsurf_DD23>
1.22474

>  <vsurf_DW12>
5.19615

>  <vsurf_DW13>
0.5

>  <vsurf_DW23>
5.5

>  <vsurf_EDmin1>
-2.7832

>  <vsurf_EDmin2>
-2.76276

>  <vsurf_EDmin3>
-2.73921

>  <vsurf_EWmin1>
-5.23984

>  <vsurf_EWmin2>
-5.2081

>  <vsurf_EWmin3>
-5.17797

>  <vsurf_G>
1.3567

>  <vsurf_HB1>
398.125

>  <vsurf_HB2>
541.5

>  <vsurf_HB3>
444.625

>  <vsurf_HB4>
154.375

>  <vsurf_HB5>
41.25

>  <vsurf_HB6>
9.25

>  <vsurf_HB7>
0.625

>  <vsurf_HB8>
0

>  <vsurf_HL1>
0.144812

>  <vsurf_HL2>
0.0412322

>  <vsurf_ID1>
2.27132

>  <vsurf_ID2>
2.34183

>  <vsurf_ID3>
2.79029

>  <vsurf_ID4>
3.49332

>  <vsurf_ID5>
4.02175

>  <vsurf_ID6>
4.16585

>  <vsurf_ID7>
2.81768

>  <vsurf_ID8>
1.84984

>  <vsurf_IW1>
0.511709

>  <vsurf_IW2>
0.696656

>  <vsurf_IW3>
1.50119

>  <vsurf_IW4>
1.64154

>  <vsurf_IW5>
1.75613

>  <vsurf_IW6>
2.1108

>  <vsurf_IW7>
4.3362

>  <vsurf_IW8>
0

>  <vsurf_R>
1.43689

>  <vsurf_S>
583.115

>  <vsurf_V>
837.875

>  <vsurf_W1>
1444.38

>  <vsurf_W2>
956.875

>  <vsurf_W3>
536.875

>  <vsurf_W4>
170.375

>  <vsurf_W5>
47.625

>  <vsurf_W6>
10.875

>  <vsurf_W7>
0.625

>  <vsurf_W8>
0

>  <vsurf_Wp1>
1046.25

>  <vsurf_Wp2>
415.375

>  <vsurf_Wp3>
92.25

>  <vsurf_Wp4>
16

>  <vsurf_Wp5>
6.375

>  <vsurf_Wp6>
1.625

>  <vsurf_Wp7>
0

>  <vsurf_Wp8>
0

>  <dens>
1.22031

>  <glob>
0.0843308

>  <std_dim1>
4.32608

>  <std_dim2>
1.65237

>  <std_dim3>
1.25628

>  <vol>
355.125

>  <logP(o/w)>
2.685

$$$$
D5.cdx
  MOE2008           3D

 49 52  0  0  0  0  0  0  0  0999 V2000
   -6.9660    3.4210    2.2850 C   0  0  0  0  0  0  0  0  0  0  0  0
   -7.4540    3.9160    3.1200 H   0  0  0  0  0  0  0  0  0  0  0  0
   -7.7220    2.9770    1.2050 C   0  0  0  0  0  0  0  0  0  0  0  0
   -8.7980    3.1290    1.2040 H   0  0  0  0  0  0  0  0  0  0  0  0
   -7.1200    2.3340    0.1200 C   0  0  0  0  0  0  0  0  0  0  0  0
   -7.7200    1.9890   -0.7160 H   0  0  0  0  0  0  0  0  0  0  0  0
   -5.7280    2.1500    0.1510 C   0  0  0  0  0  0  0  0  0  0  0  0
   -4.9420    2.5860    1.2240 C   0  0  0  0  0  0  0  0  0  0  0  0
   -5.5800    3.2330    2.3050 C   0  0  0  0  0  0  0  0  0  0  0  0
   -5.0010    3.5830    3.1560 H   0  0  0  0  0  0  0  0  0  0  0  0
   -4.8750    1.5600   -0.7560 N   0  0  0  0  0  0  0  0  0  0  0  0
   -3.5860    1.6080   -0.2970 C   0  0  0  0  0  0  0  0  0  0  0  0
   -2.7760    1.1840   -0.8800 H   0  0  0  0  0  0  0  0  0  0  0  0
   -3.5820    2.2380    0.9350 C   0  0  0  0  0  0  0  0  0  0  0  0
   -2.4030    2.4880    1.7550 C   0  0  0  0  0  0  0  0  0  0  0  0
   -1.0370    2.0180    1.2830 C   0  0  0  0  0  0  0  0  0  0  0  0
   -0.1510    2.9990    0.8420 N   0  0  0  0  0  0  0  0  0  0  0  0
    1.1920    2.6070    0.4150 C   0  0  0  0  0  0  0  0  0  0  0  0
    1.4800    1.6640    0.8910 H   0  0  0  0  0  0  0  0  0  0  0  0
    1.1390    2.4290   -0.6650 H   0  0  0  0  0  0  0  0  0  0  0  0
    2.2300    3.6910    0.7210 C   0  0  0  0  0  0  0  0  0  0  0  0
    3.2110    3.3840    0.3470 H   0  0  0  0  0  0  0  0  0  0  0  0
    2.3030    3.8300    1.8060 H   0  0  0  0  0  0  0  0  0  0  0  0
    1.8650    4.9960    0.1480 N   0  0  0  0  0  0  0  0  0  0  0  0
    0.4470    5.2140   -0.1480 C   0  0  0  0  0  0  0  0  0  0  0  0
    0.2120    6.2820   -0.1000 H   0  0  0  0  0  0  0  0  0  0  0  0
    0.2920    4.8900   -1.1850 H   0  0  0  0  0  0  0  0  0  0  0  0
   -0.4790    4.4300    0.7870 C   0  0  0  0  0  0  0  0  0  0  0  0
   -1.5200    4.5590    0.4770 H   0  0  0  0  0  0  0  0  0  0  0  0
   -0.3840    4.8110    1.8110 H   0  0  0  0  0  0  0  0  0  0  0  0
    2.7680    6.0140   -0.1560 C   0  0  0  0  0  0  0  0  0  0  0  0
    4.1790    5.8640    0.2660 C   0  0  0  0  0  0  0  0  0  0  0  0
    4.5080    5.7480    1.6200 C   0  0  0  0  0  0  0  0  0  0  0  0
    3.7350    5.7600    2.3840 H   0  0  0  0  0  0  0  0  0  0  0  0
    5.8470    5.6300    1.9950 C   0  0  0  0  0  0  0  0  0  0  0  0
    6.1110    5.5340    3.0450 H   0  0  0  0  0  0  0  0  0  0  0  0
    6.8480    5.6450    1.0220 C   0  0  0  0  0  0  0  0  0  0  0  0
    7.8910    5.5570    1.3160 H   0  0  0  0  0  0  0  0  0  0  0  0
    6.5170    5.7870   -0.3270 C   0  0  0  0  0  0  0  0  0  0  0  0
    7.3010    5.8120   -1.0790 H   0  0  0  0  0  0  0  0  0  0  0  0
    5.1800    5.9030   -0.7090 C   0  0  0  0  0  0  0  0  0  0  0  0
    4.9230    6.0250   -1.7580 H   0  0  0  0  0  0  0  0  0  0  0  0
   -2.4430    3.0860    2.8270 O   0  0  0  0  0  0  0  0  0  0  0  0
   -0.8060    0.8140    1.3160 O   0  0  0  0  0  0  0  0  0  0  0  0
    2.4700    7.0370   -0.7670 O   0  0  0  0  0  0  0  0  0  0  0  0
   -5.2790    0.9710   -2.0130 C   0  0  0  0  0  0  0  0  0  0  0  0
   -4.4020    0.5750   -2.5320 H   0  0  0  0  0  0  0  0  0  0  0  0
   -5.7490    1.7470   -2.6230 H   0  0  0  0  0  0  0  0  0  0  0  0
   -5.9820    0.1610   -1.8060 H   0  0  0  0  0  0  0  0  0  0  0  0
  1  2  1  0  0  0  0
  1  3  1  0  0  0  0
  1  9  2  0  0  0  0
  3  4  1  0  0  0  0
  3  5  2  0  0  0  0
  5  6  1  0  0  0  0
  5  7  1  0  0  0  0
  7  8  2  0  0  0  0
  7 11  1  0  0  0  0
  8  9  1  0  0  0  0
  8 14  1  0  0  0  0
  9 10  1  0  0  0  0
 11 12  1  0  0  0  0
 11 46  1  0  0  0  0
 12 13  1  0  0  0  0
 12 14  2  0  0  0  0
 14 15  1  0  0  0  0
 15 16  1  0  0  0  0
 15 43  2  0  0  0  0
 16 17  1  0  0  0  0
 16 44  2  0  0  0  0
 17 18  1  0  0  0  0
 17 28  1  0  0  0  0
 18 19  1  0  0  0  0
 18 20  1  0  0  0  0
 18 21  1  0  0  0  0
 21 22  1  0  0  0  0
 21 23  1  0  0  0  0
 21 24  1  0  0  0  0
 24 25  1  0  0  0  0
 24 31  1  0  0  0  0
 25 26  1  0  0  0  0
 25 27  1  0  0  0  0
 25 28  1  0  0  0  0
 28 29  1  0  0  0  0
 28 30  1  0  0  0  0
 31 32  1  0  0  0  0
 31 45  2  0  0  0  0
 32 33  1  0  0  0  0
 32 41  2  0  0  0  0
 33 34  1  0  0  0  0
 33 35  2  0  0  0  0
 35 36  1  0  0  0  0
 35 37  1  0  0  0  0
 37 38  1  0  0  0  0
 37 39  2  0  0  0  0
 39 40  1  0  0  0  0
 39 41  1  0  0  0  0
 41 42  1  0  0  0  0
 46 47  1  0  0  0  0
 46 48  1  0  0  0  0
 46 49  1  0  0  0  0
M  END
>  <Activity>
6.5767

>  <AM1_dipole>
4.30988

>  <AM1_E>
-108048

>  <AM1_Eele>
-820852

>  <AM1_HF>
7.62075

>  <AM1_HOMO>
-8.7864

>  <AM1_IP>
8.7864

>  <AM1_LUMO>
-0.46195

>  <diameter>
15

>  <petitjean>
0.466667

>  <petitjeanSC>
0.875

>  <radius>
8

>  <VDistEq>
3.66334

>  <VDistMa>
9.29334

>  <weinerPath>
2211

>  <weinerPol>
47

>  <BCUT_PEOE_0>
-2.71189

>  <BCUT_PEOE_1>
-0.559152

>  <BCUT_PEOE_2>
0.598856

>  <BCUT_PEOE_3>
2.65028

>  <BCUT_SLOGP_0>
-2.86001

>  <BCUT_SLOGP_1>
-0.451336

>  <BCUT_SLOGP_2>
0.696906

>  <BCUT_SLOGP_3>
2.50401

>  <BCUT_SMR_0>
-2.43203

>  <BCUT_SMR_1>
-0.407664

>  <BCUT_SMR_2>
0.759507

>  <BCUT_SMR_3>
2.92035

>  <GCUT_PEOE_0>
-0.871616

>  <GCUT_PEOE_1>
-0.403734

>  <GCUT_PEOE_2>
0.0617718

>  <GCUT_PEOE_3>
2.68229

>  <GCUT_SLOGP_0>
-0.976487

>  <GCUT_SLOGP_1>
-0.300644

>  <GCUT_SLOGP_2>
0.137692

>  <GCUT_SLOGP_3>
2.67898

>  <GCUT_SMR_0>
-0.508959

>  <GCUT_SMR_1>
-0.198373

>  <GCUT_SMR_2>
0.170757

>  <GCUT_SMR_3>
2.95741

>  <a_aro>
15

>  <a_count>
49

>  <a_IC>
75.2648

>  <a_ICM>
1.53602

>  <a_nH>
21

>  <b_1rotN>
5

>  <b_1rotR>
0.16129

>  <b_ar>
16

>  <b_count>
52

>  <b_double>
3

>  <b_rotN>
5

>  <b_rotR>
0.16129

>  <b_single>
33

>  <b_triple>
0

>  <chi0v>
15.6683

>  <chi0v_C>
13.1019

>  <chi1v>
9.28023

>  <chi1v_C>
6.02671

>  <chiral>
0

>  <chiral_u>
0

>  <nmol>
1

>  <reactive>
0

>  <rings>
4

>  <Weight>
375.428

>  <a_heavy>
28

>  <a_nB>
0

>  <a_nBr>
0

>  <a_nC>
22

>  <a_nCl>
0

>  <a_nF>
0

>  <a_nI>
0

>  <a_nN>
3

>  <a_nO>
3

>  <a_nP>
0

>  <a_nS>
0

>  <b_heavy>
31

>  <chi0>
19.673

>  <chi0_C>
14.9409

>  <chi1>
13.5586

>  <chi1_C>
8.20791

>  <FCharge>
0

>  <VAdjEq>
0.398935

>  <VAdjMa>
5.9542

>  <zagreb>
150

>  <balabanJ>
1.29239

>  <PEOE_PC+>
2.32179

>  <PEOE_PC->
-2.32179

>  <PEOE_RPC+>
0.1271

>  <PEOE_RPC->
0.150305

>  <PEOE_VSA+0>
116.667

>  <PEOE_VSA+1>
78.9855

>  <PEOE_VSA+2>
0

>  <PEOE_VSA+3>
0

>  <PEOE_VSA+4>
0

>  <PEOE_VSA+5>
34.3576

>  <PEOE_VSA+6>
0

>  <PEOE_VSA-0>
36.7647

>  <PEOE_VSA-1>
73.5294

>  <PEOE_VSA-2>
0

>  <PEOE_VSA-3>
0

>  <PEOE_VSA-4>
0

>  <PEOE_VSA-5>
40.7008

>  <PEOE_VSA-6>
0

>  <PEOE_VSA_FHYD>
0.802999

>  <PEOE_VSA_FNEG>
0.396307

>  <PEOE_VSA_FPNEG>
0.106825

>  <PEOE_VSA_FPOL>
0.197001

>  <PEOE_VSA_FPOS>
0.603693

>  <PEOE_VSA_FPPOS>
0.0901763

>  <PEOE_VSA_HYD>
305.946

>  <PEOE_VSA_NEG>
150.995

>  <PEOE_VSA_PNEG>
40.7008

>  <PEOE_VSA_POL>
75.0583

>  <PEOE_VSA_POS>
230.01

>  <PEOE_VSA_PPOS>
34.3576

>  <PC+>
4.92

>  <PC->
-4.92

>  <Q_PC+>
4.92

>  <Q_PC->
-4.92

>  <Q_RPC+>
0.133333

>  <Q_RPC->
0.134146

>  <Q_VSA_FHYD>
0.559553

>  <Q_VSA_FNEG>
0.46364

>  <Q_VSA_FPNEG>
0.150777

>  <Q_VSA_FPOL>
0.440447

>  <Q_VSA_FPOS>
0.53636

>  <Q_VSA_FPPOS>
0.28967

>  <Q_VSA_HYD>
213.192

>  <Q_VSA_NEG>
176.649

>  <Q_VSA_PNEG>
57.4467

>  <Q_VSA_POL>
167.812

>  <Q_VSA_POS>
204.356

>  <Q_VSA_PPOS>
110.366

>  <RPC+>
0.133333

>  <RPC->
0.134146

>  <lip_acc>
6

>  <lip_don>
0

>  <lip_druglike>
1

>  <lip_violation>
0

>  <opr_brigid>
22

>  <opr_leadlike>
1

>  <opr_nring>
4

>  <opr_nrot>
5

>  <opr_violation>
0

>  <E>
96.147

>  <E_ang>
7.0401

>  <E_ele>
30.7563

>  <E_nb>
79.3708

>  <E_oop>
0.0449822

>  <E_sol>
-18.2997

>  <E_stb>
0.320128

>  <E_str>
5.96704

>  <E_strain>
0.00473724

>  <E_tor>
3.40399

>  <E_vdw>
48.6145

>  <E_rele>
0

>  <E_rnb>
0

>  <E_rsol>
0

>  <E_rvdw>
0

>  <Kier1>
21.2404

>  <Kier2>
9.42769

>  <Kier3>
4.54179

>  <KierA1>
14.5633

>  <KierA2>
6.36575

>  <KierA3>
3.03337

>  <KierFlex>
3.31095

>  <logS>
-3.9236

>  <MNDO_dipole>
2.79041

>  <MNDO_E>
-108291

>  <MNDO_Eele>
-813377

>  <MNDO_HF>
-11.657

>  <MNDO_HOMO>
-8.76712

>  <MNDO_IP>
8.76712

>  <MNDO_LUMO>
-0.43088

>  <apol>
58.4287

>  <bpol>
31.7713

>  <mr>
10.7335

>  <dipole>
0.826266

>  <dipoleX>
0.146554

>  <dipoleY>
-0.45858

>  <dipoleZ>
-0.671522

>  <pmi>
8785.05

>  <pmiX>
7085.46

>  <pmiY>
1200.17

>  <pmiZ>
499.414

>  <rgyr>
4.83736

>  <a_acc>
3

>  <a_acid>
0

>  <a_base>
0

>  <a_don>
0

>  <a_hyd>
19

>  <vsa_acc>
40.7008

>  <vsa_acid>
0

>  <vsa_base>
0

>  <vsa_don>
0

>  <vsa_hyd>
290.999

>  <vsa_other>
34.3576

>  <vsa_pol>
40.7008

>  <PM3_dipole>
3.96061

>  <PM3_E>
-99087.5

>  <PM3_Eele>
-804786

>  <PM3_HF>
-33.2667

>  <PM3_HOMO>
-8.72751

>  <PM3_IP>
8.72751

>  <PM3_LUMO>
-0.51674

>  <SlogP>
2.7048

>  <SlogP_VSA0>
0

>  <SlogP_VSA1>
24.3529

>  <SlogP_VSA2>
23.8622

>  <SlogP_VSA3>
73.7583

>  <SlogP_VSA4>
54.0956

>  <SlogP_VSA5>
0

>  <SlogP_VSA6>
0

>  <SlogP_VSA7>
180.72

>  <SlogP_VSA8>
0

>  <SlogP_VSA9>
32.8972

>  <SMR>
10.6456

>  <SMR_VSA0>
71.5866

>  <SMR_VSA1>
8.14772

>  <SMR_VSA2>
0

>  <SMR_VSA3>
6.37115

>  <SMR_VSA4>
4.7171

>  <SMR_VSA5>
176.003

>  <SMR_VSA6>
89.9635

>  <SMR_VSA7>
32.8972

>  <ASA>
649.157

>  <ASA+>
244.963

>  <ASA->
244.16

>  <ASA_H>
501.076

>  <ASA_P>
148.08

>  <CASA+>
1205.22

>  <CASA->
1201.27

>  <DASA>
0.802224

>  <DCASA>
3.94694

>  <FASA+>
0.377355

>  <FASA->
0.376119

>  <FASA_H>
0.771888

>  <FASA_P>
0.228112

>  <FCASA+>
1.85659

>  <FCASA->
1.85051

>  <VSA>
397.785

>  <TPSA>
62.62

>  <density>
0.733706

>  <vdw_area>
381.005

>  <vdw_vol>
511.687

>  <vsurf_A>
1.57721

>  <vsurf_CP>
0.177382

>  <vsurf_CW1>
2.60795

>  <vsurf_CW2>
1.91816

>  <vsurf_CW3>
1.10707

>  <vsurf_CW4>
0.457645

>  <vsurf_CW5>
0.178893

>  <vsurf_CW6>
0.0620565

>  <vsurf_CW7>
0.0043865

>  <vsurf_CW8>
0

>  <vsurf_D1>
958.5

>  <vsurf_D2>
563.375

>  <vsurf_D3>
426

>  <vsurf_D4>
372.625

>  <vsurf_D5>
326.125

>  <vsurf_D6>
260.125

>  <vsurf_D7>
144.25

>  <vsurf_D8>
77

>  <vsurf_DD12>
0.707107

>  <vsurf_DD13>
4.12311

>  <vsurf_DD23>
3.53553

>  <vsurf_DW12>
0.707107

>  <vsurf_DW13>
5.87367

>  <vsurf_DW23>
5.38516

>  <vsurf_EDmin1>
-2.69956

>  <vsurf_EDmin2>
-2.68737

>  <vsurf_EDmin3>
-2.64209

>  <vsurf_EWmin1>
-5.6426

>  <vsurf_EWmin2>
-5.4462

>  <vsurf_EWmin3>
-5.28442

>  <vsurf_G>
1.35636

>  <vsurf_HB1>
296.75

>  <vsurf_HB2>
307.5

>  <vsurf_HB3>
292.25

>  <vsurf_HB4>
105.5

>  <vsurf_HB5>
34.125

>  <vsurf_HB6>
9.75

>  <vsurf_HB7>
0.875

>  <vsurf_HB8>
0

>  <vsurf_HL1>
0.0801056

>  <vsurf_HL2>
0.0261657

>  <vsurf_ID1>
0.310839

>  <vsurf_ID2>
0.400678

>  <vsurf_ID3>
0.485444

>  <vsurf_ID4>
0.524797

>  <vsurf_ID5>
0.532823

>  <vsurf_ID6>
0.470607

>  <vsurf_ID7>
0.612397

>  <vsurf_ID8>
0.924106

>  <vsurf_IW1>
0.206523

>  <vsurf_IW2>
0.417605

>  <vsurf_IW3>
0.641175

>  <vsurf_IW4>
1.08429

>  <vsurf_IW5>
1.14484

>  <vsurf_IW6>
1.32555

>  <vsurf_IW7>
3.88927

>  <vsurf_IW8>
0

>  <vsurf_R>
1.4438

>  <vsurf_S>
588.293

>  <vsurf_V>
849.375

>  <vsurf_W1>
1331.75

>  <vsurf_W2>
712.875

>  <vsurf_W3>
332.5

>  <vsurf_W4>
105.5

>  <vsurf_W5>
34.125

>  <vsurf_W6>
9.75

>  <vsurf_W7>
0.875

>  <vsurf_W8>
0

>  <vsurf_Wp1>
1035

>  <vsurf_Wp2>
405.375

>  <vsurf_Wp3>
40.25

>  <vsurf_Wp4>
0

>  <vsurf_Wp5>
0

>  <vsurf_Wp6>
0

>  <vsurf_Wp7>
0

>  <vsurf_Wp8>
0

>  <dens>
1.02751

>  <glob>
0.0540431

>  <std_dim1>
4.82989

>  <std_dim2>
1.52715

>  <std_dim3>
1.12281

>  <vol>
365.375

>  <logP(o/w)>
2.473

$$$$
D5.cdx
  MOE2008           3D

 52 55  0  0  0  0  0  0  0  0999 V2000
   -6.5190   -0.7050   -1.2190 C   0  0  0  0  0  0  0  0  0  0  0  0
   -7.3140   -0.0370   -1.5430 H   0  0  0  0  0  0  0  0  0  0  0  0
   -6.6010   -2.0650   -1.4970 C   0  0  0  0  0  0  0  0  0  0  0  0
   -7.4620   -2.4520   -2.0380 H   0  0  0  0  0  0  0  0  0  0  0  0
   -5.5950   -2.9450   -1.0890 C   0  0  0  0  0  0  0  0  0  0  0  0
   -5.6740   -4.0050   -1.3110 H   0  0  0  0  0  0  0  0  0  0  0  0
   -4.4960   -2.4180   -0.3900 C   0  0  0  0  0  0  0  0  0  0  0  0
   -4.3870   -1.0530   -0.1000 C   0  0  0  0  0  0  0  0  0  0  0  0
   -5.4200   -0.1890   -0.5250 C   0  0  0  0  0  0  0  0  0  0  0  0
   -5.3690    0.8760   -0.3130 H   0  0  0  0  0  0  0  0  0  0  0  0
   -3.3760   -3.0290    0.1320 N   0  0  0  0  0  0  0  0  0  0  0  0
   -2.5620   -2.0990    0.7260 C   0  0  0  0  0  0  0  0  0  0  0  0
   -1.6320   -2.4010    1.1920 H   0  0  0  0  0  0  0  0  0  0  0  0
   -3.1590   -0.8570    0.6120 C   0  0  0  0  0  0  0  0  0  0  0  0
   -2.6190    0.3950    1.1290 C   0  0  0  0  0  0  0  0  0  0  0  0
   -1.2750    0.4050    1.8350 C   0  0  0  0  0  0  0  0  0  0  0  0
   -0.1690    0.8060    1.0880 N   0  0  0  0  0  0  0  0  0  0  0  0
    1.1550    0.7760    1.7110 C   0  0  0  0  0  0  0  0  0  0  0  0
    1.3010    1.7540    2.1850 H   0  0  0  0  0  0  0  0  0  0  0  0
    1.1800    0.0200    2.5030 H   0  0  0  0  0  0  0  0  0  0  0  0
    2.2680    0.5110    0.6930 C   0  0  0  0  0  0  0  0  0  0  0  0
    2.1370   -0.4860    0.2590 H   0  0  0  0  0  0  0  0  0  0  0  0
    3.2420    0.5430    1.1910 H   0  0  0  0  0  0  0  0  0  0  0  0
    2.2470    1.4690   -0.4230 N   0  0  0  0  0  0  0  0  0  0  0  0
    0.9670    2.1240   -0.7050 C   0  0  0  0  0  0  0  0  0  0  0  0
    0.9640    3.0610   -0.1350 H   0  0  0  0  0  0  0  0  0  0  0  0
    0.9060    2.3860   -1.7670 H   0  0  0  0  0  0  0  0  0  0  0  0
   -0.2380    1.2660   -0.3060 C   0  0  0  0  0  0  0  0  0  0  0  0
   -0.2800    0.3640   -0.9280 H   0  0  0  0  0  0  0  0  0  0  0  0
   -1.1620    1.8270   -0.4720 H   0  0  0  0  0  0  0  0  0  0  0  0
    3.3520    1.8150   -1.2010 C   0  0  0  0  0  0  0  0  0  0  0  0
    4.6110    1.0580   -1.0240 C   0  0  0  0  0  0  0  0  0  0  0  0
    4.6550   -0.3190   -1.2710 C   0  0  0  0  0  0  0  0  0  0  0  0
    3.7650   -0.8540   -1.5900 H   0  0  0  0  0  0  0  0  0  0  0  0
    5.8590   -1.0060   -1.1190 C   0  0  0  0  0  0  0  0  0  0  0  0
    5.9030   -2.0760   -1.3050 H   0  0  0  0  0  0  0  0  0  0  0  0
    7.0130   -0.3180   -0.7390 C   0  0  0  0  0  0  0  0  0  0  0  0
    7.9510   -0.8550   -0.6250 H   0  0  0  0  0  0  0  0  0  0  0  0
    6.9710    1.0600   -0.5170 C   0  0  0  0  0  0  0  0  0  0  0  0
    7.8750    1.5930   -0.2350 H   0  0  0  0  0  0  0  0  0  0  0  0
    5.7700    1.7540   -0.6660 C   0  0  0  0  0  0  0  0  0  0  0  0
    5.7390    2.8290   -0.5050 H   0  0  0  0  0  0  0  0  0  0  0  0
   -3.1990    1.4730    1.0250 O   0  0  0  0  0  0  0  0  0  0  0  0
   -1.2480    0.0440    3.0070 O   0  0  0  0  0  0  0  0  0  0  0  0
    3.3520    2.7230   -2.0270 O   0  0  0  0  0  0  0  0  0  0  0  0
   -3.0830   -4.4530    0.0790 C   0  0  0  0  0  0  0  0  0  0  0  0
   -2.4600   -4.6970    0.9470 H   0  0  0  0  0  0  0  0  0  0  0  0
   -4.0260   -4.9990    0.1920 H   0  0  0  0  0  0  0  0  0  0  0  0
   -2.3760   -4.8470   -1.2050 C   0  0  0  0  0  0  0  0  0  0  0  0
   -1.4280   -4.3090   -1.3150 H   0  0  0  0  0  0  0  0  0  0  0  0
   -2.9900   -4.6220   -2.0830 H   0  0  0  0  0  0  0  0  0  0  0  0
   -2.1610   -5.9200   -1.2060 H   0  0  0  0  0  0  0  0  0  0  0  0
  1  2  1  0  0  0  0
  1  3  1  0  0  0  0
  1  9  2  0  0  0  0
  3  4  1  0  0  0  0
  3  5  2  0  0  0  0
  5  6  1  0  0  0  0
  5  7  1  0  0  0  0
  7  8  2  0  0  0  0
  7 11  1  0  0  0  0
  8  9  1  0  0  0  0
  8 14  1  0  0  0  0
  9 10  1  0  0  0  0
 11 12  1  0  0  0  0
 11 46  1  0  0  0  0
 12 13  1  0  0  0  0
 12 14  2  0  0  0  0
 14 15  1  0  0  0  0
 15 16  1  0  0  0  0
 15 43  2  0  0  0  0
 16 17  1  0  0  0  0
 16 44  2  0  0  0  0
 17 18  1  0  0  0  0
 17 28  1  0  0  0  0
 18 19  1  0  0  0  0
 18 20  1  0  0  0  0
 18 21  1  0  0  0  0
 21 22  1  0  0  0  0
 21 23  1  0  0  0  0
 21 24  1  0  0  0  0
 24 25  1  0  0  0  0
 24 31  1  0  0  0  0
 25 26  1  0  0  0  0
 25 27  1  0  0  0  0
 25 28  1  0  0  0  0
 28 29  1  0  0  0  0
 28 30  1  0  0  0  0
 31 32  1  0  0  0  0
 31 45  2  0  0  0  0
 32 33  1  0  0  0  0
 32 41  2  0  0  0  0
 33 34  1  0  0  0  0
 33 35  2  0  0  0  0
 35 36  1  0  0  0  0
 35 37  1  0  0  0  0
 37 38  1  0  0  0  0
 37 39  2  0  0  0  0
 39 40  1  0  0  0  0
 39 41  1  0  0  0  0
 41 42  1  0  0  0  0
 46 47  1  0  0  0  0
 46 48  1  0  0  0  0
 46 49  1  0  0  0  0
 49 50  1  0  0  0  0
 49 51  1  0  0  0  0
 49 52  1  0  0  0  0
M  END
>  <Activity>
5.8386

>  <AM1_dipole>
6.27415

>  <AM1_E>
-111641

>  <AM1_Eele>
-878553

>  <AM1_HF>
1.27399

>  <AM1_HOMO>
-8.75129

>  <AM1_IP>
8.75129

>  <AM1_LUMO>
-0.42585

>  <diameter>
15

>  <petitjean>
0.466667

>  <petitjeanSC>
0.875

>  <radius>
8

>  <VDistEq>
3.69306

>  <VDistMa>
9.39837

>  <weinerPath>
2427

>  <weinerPol>
49

>  <BCUT_PEOE_0>
-2.7119

>  <BCUT_PEOE_1>
-0.550747

>  <BCUT_PEOE_2>
0.598123

>  <BCUT_PEOE_3>
2.65032

>  <BCUT_SLOGP_0>
-2.86001

>  <BCUT_SLOGP_1>
-0.442947

>  <BCUT_SLOGP_2>
0.695572

>  <BCUT_SLOGP_3>
2.52502

>  <BCUT_SMR_0>
-2.43204

>  <BCUT_SMR_1>
-0.407021

>  <BCUT_SMR_2>
0.754206

>  <BCUT_SMR_3>
2.92042

>  <GCUT_PEOE_0>
-0.86967

>  <GCUT_PEOE_1>
-0.403734

>  <GCUT_PEOE_2>
0.0617613

>  <GCUT_PEOE_3>
2.712

>  <GCUT_SLOGP_0>
-0.976491

>  <GCUT_SLOGP_1>
-0.289723

>  <GCUT_SLOGP_2>
0.137692

>  <GCUT_SLOGP_3>
2.72189

>  <GCUT_SMR_0>
-0.512557

>  <GCUT_SMR_1>
-0.195997

>  <GCUT_SMR_2>
0.16918

>  <GCUT_SMR_3>
2.98769

>  <a_aro>
15

>  <a_count>
52

>  <a_IC>
78.8292

>  <a_ICM>
1.51595

>  <a_nH>
23

>  <b_1rotN>
6

>  <b_1rotR>
0.1875

>  <b_ar>
16

>  <b_count>
55

>  <b_double>
3

>  <b_rotN>
6

>  <b_rotR>
0.1875

>  <b_single>
36

>  <b_triple>
0

>  <chi0v>
16.3754

>  <chi0v_C>
13.809

>  <chi1v>
9.85635

>  <chi1v_C>
6.73382

>  <chiral>
0

>  <chiral_u>
0

>  <nmol>
1

>  <reactive>
0

>  <rings>
4

>  <Weight>
389.455

>  <a_heavy>
29

>  <a_nB>
0

>  <a_nBr>
0

>  <a_nC>
23

>  <a_nCl>
0

>  <a_nF>
0

>  <a_nI>
0

>  <a_nN>
3

>  <a_nO>
3

>  <a_nP>
0

>  <a_nS>
0

>  <b_heavy>
32

>  <chi0>
20.3801

>  <chi0_C>
15.6481

>  <chi1>
14.0966

>  <chi1_C>
8.91502

>  <FCharge>
0

>  <VAdjEq>
0.388286

>  <VAdjMa>
6

>  <zagreb>
154

>  <balabanJ>
1.30288

>  <PEOE_PC+>
2.36609

>  <PEOE_PC->
-2.36609

>  <PEOE_RPC+>
0.12472

>  <PEOE_RPC->
0.146312

>  <PEOE_VSA+0>
115.151

>  <PEOE_VSA+1>
78.9855

>  <PEOE_VSA+2>
0

>  <PEOE_VSA+3>
0

>  <PEOE_VSA+4>
0

>  <PEOE_VSA+5>
34.3576

>  <PEOE_VSA+6>
0

>  <PEOE_VSA-0>
55.5124

>  <PEOE_VSA-1>
73.5294

>  <PEOE_VSA-2>
0

>  <PEOE_VSA-3>
0

>  <PEOE_VSA-4>
0

>  <PEOE_VSA-5>
40.7008

>  <PEOE_VSA-6>
0

>  <PEOE_VSA_FHYD>
0.811523

>  <PEOE_VSA_FNEG>
0.426235

>  <PEOE_VSA_FPNEG>
0.102202

>  <PEOE_VSA_FPOL>
0.188477

>  <PEOE_VSA_FPOS>
0.573765

>  <PEOE_VSA_FPPOS>
0.0862743

>  <PEOE_VSA_HYD>
323.178

>  <PEOE_VSA_NEG>
169.743

>  <PEOE_VSA_PNEG>
40.7008

>  <PEOE_VSA_POL>
75.0583

>  <PEOE_VSA_POS>
228.494

>  <PEOE_VSA_PPOS>
34.3576

>  <PC+>
4.92

>  <PC->
-4.92

>  <Q_PC+>
4.92

>  <Q_PC->
-4.92

>  <Q_RPC+>
0.133333

>  <Q_RPC->
0.134146

>  <Q_VSA_FHYD>
0.603839

>  <Q_VSA_FNEG>
0.443578

>  <Q_VSA_FPNEG>
0.144253

>  <Q_VSA_FPOL>
0.396161

>  <Q_VSA_FPOS>
0.556422

>  <Q_VSA_FPPOS>
0.251908

>  <Q_VSA_HYD>
240.471

>  <Q_VSA_NEG>
176.649

>  <Q_VSA_PNEG>
57.4467

>  <Q_VSA_POL>
157.766

>  <Q_VSA_POS>
221.588

>  <Q_VSA_PPOS>
100.319

>  <RPC+>
0.133333

>  <RPC->
0.134146

>  <lip_acc>
6

>  <lip_don>
0

>  <lip_druglike>
1

>  <lip_violation>
0

>  <opr_brigid>
22

>  <opr_leadlike>
1

>  <opr_nring>
4

>  <opr_nrot>
6

>  <opr_violation>
0

>  <E>
93.9327

>  <E_ang>
7.19802

>  <E_ele>
30.8996

>  <E_nb>
79.9696

>  <E_oop>
0.0451001

>  <E_sol>
-17.5447

>  <E_stb>
0.469467

>  <E_str>
6.09105

>  <E_strain>
0.00438643

>  <E_tor>
0.159515

>  <E_vdw>
49.07

>  <E_rele>
0

>  <E_rnb>
0

>  <E_rsol>
0

>  <E_rvdw>
0

>  <Kier1>
22.2031

>  <Kier2>
10.08

>  <Kier3>
4.76896

>  <KierA1>
15.4407

>  <KierA2>
6.91129

>  <KierA3>
3.23572

>  <KierFlex>
3.67983

>  <logS>
-4.25081

>  <MNDO_dipole>
6.99529

>  <MNDO_E>
-111899

>  <MNDO_Eele>
-872019

>  <MNDO_HF>
-19.9769

>  <MNDO_HOMO>
-8.77144

>  <MNDO_IP>
8.77144

>  <MNDO_LUMO>
-0.42723

>  <apol>
61.5222

>  <bpol>
33.9578

>  <mr>
11.2101

>  <dipole>
1.65754

>  <dipoleX>
0.621834

>  <dipoleY>
-1.53016

>  <dipoleZ>
-0.139278

>  <pmi>
8529.85

>  <pmiX>
6459.59

>  <pmiY>
1513.38

>  <pmiZ>
556.881

>  <rgyr>
4.67996

>  <a_acc>
3

>  <a_acid>
0

>  <a_base>
0

>  <a_don>
0

>  <a_hyd>
20

>  <vsa_acc>
40.7008

>  <vsa_acid>
0

>  <vsa_base>
0

>  <vsa_don>
0

>  <vsa_hyd>
306.807

>  <vsa_other>
34.3576

>  <vsa_pol>
40.7008

>  <PM3_dipole>
6.42768

>  <PM3_E>
-102536

>  <PM3_Eele>
-862125

>  <PM3_HF>
-38.7636

>  <PM3_HOMO>
-8.73469

>  <PM3_IP>
8.73469

>  <PM3_LUMO>
-0.50166

>  <SlogP>
3.0949

>  <SlogP_VSA0>
0

>  <SlogP_VSA1>
24.3529

>  <SlogP_VSA2>
23.8622

>  <SlogP_VSA3>
73.7583

>  <SlogP_VSA4>
54.0956

>  <SlogP_VSA5>
0

>  <SlogP_VSA6>
0

>  <SlogP_VSA7>
180.72

>  <SlogP_VSA8>
0

>  <SlogP_VSA9>
51.7656

>  <SMR>
11.1073

>  <SMR_VSA0>
71.5866

>  <SMR_VSA1>
8.14772

>  <SMR_VSA2>
0

>  <SMR_VSA3>
6.37115

>  <SMR_VSA4>
4.7171

>  <SMR_VSA5>
194.443

>  <SMR_VSA6>
89.9635

>  <SMR_VSA7>
33.326

>  <ASA>
672.727

>  <ASA+>
223.941

>  <ASA->
237.162

>  <ASA_H>
545.318

>  <ASA_P>
127.41

>  <CASA+>
1101.79

>  <CASA->
1166.84

>  <DASA>
13.221

>  <DCASA>
65.0472

>  <FASA+>
0.332886

>  <FASA->
0.352539

>  <FASA_H>
0.810607

>  <FASA_P>
0.189393

>  <FCASA+>
1.6378

>  <FCASA->
1.73449

>  <VSA>
418.727

>  <TPSA>
62.62

>  <density>
0.726438

>  <vdw_area>
398.237

>  <vdw_vol>
536.116

>  <vsurf_A>
3.9131

>  <vsurf_CP>
0.188927

>  <vsurf_CW1>
2.56793

>  <vsurf_CW2>
1.88076

>  <vsurf_CW3>
1.07465

>  <vsurf_CW4>
0.446022

>  <vsurf_CW5>
0.178382

>  <vsurf_CW6>
0.0637258

>  <vsurf_CW7>
0.00464387

>  <vsurf_CW8>
0

>  <vsurf_D1>
974.25

>  <vsurf_D2>
575.25

>  <vsurf_D3>
445.25

>  <vsurf_D4>
387.5

>  <vsurf_D5>
341.5

>  <vsurf_D6>
274.375

>  <vsurf_D7>
151.75

>  <vsurf_D8>
81.25

>  <vsurf_DD12>
0.5

>  <vsurf_DD13>
0.5

>  <vsurf_DD23>
1

>  <vsurf_DW12>
0.707107

>  <vsurf_DW13>
5.5

>  <vsurf_DW23>
5.5

>  <vsurf_EDmin1>
-2.91849

>  <vsurf_EDmin2>
-2.81565

>  <vsurf_EDmin3>
-2.8119

>  <vsurf_EWmin1>
-5.36762

>  <vsurf_EWmin2>
-5.26422

>  <vsurf_EWmin3>
-5.18877

>  <vsurf_G>
1.36687

>  <vsurf_HB1>
313.5

>  <vsurf_HB2>
327.625

>  <vsurf_HB3>
296.625

>  <vsurf_HB4>
106.5

>  <vsurf_HB5>
34.25

>  <vsurf_HB6>
10

>  <vsurf_HB7>
1.25

>  <vsurf_HB8>
0

>  <vsurf_HL1>
0.0769231

>  <vsurf_HL2>
0.0258065

>  <vsurf_ID1>
1.11424

>  <vsurf_ID2>
1.13283

>  <vsurf_ID3>
1.23175

>  <vsurf_ID4>
1.45818

>  <vsurf_ID5>
1.63527

>  <vsurf_ID6>
1.59179

>  <vsurf_ID7>
1.19491

>  <vsurf_ID8>
0.822898

>  <vsurf_IW1>
0.271692

>  <vsurf_IW2>
1.28138

>  <vsurf_IW3>
2.10266

>  <vsurf_IW4>
2.74427

>  <vsurf_IW5>
2.71656

>  <vsurf_IW6>
2.88234

>  <vsurf_IW7>
4.34373

>  <vsurf_IW8>
0

>  <vsurf_R>
1.45763

>  <vsurf_S>
613.667

>  <vsurf_V>
894.5

>  <vsurf_W1>
1359.25

>  <vsurf_W2>
726.375

>  <vsurf_W3>
339.625

>  <vsurf_W4>
106.5

>  <vsurf_W5>
34.25

>  <vsurf_W6>
10

>  <vsurf_W7>
1.25

>  <vsurf_W8>
0

>  <vsurf_Wp1>
1045.75

>  <vsurf_Wp2>
398.75

>  <vsurf_Wp3>
43

>  <vsurf_Wp4>
0

>  <vsurf_Wp5>
0

>  <vsurf_Wp6>
0

>  <vsurf_Wp7>
0

>  <vsurf_Wp8>
0

>  <dens>
1.02018

>  <glob>
0.0710383

>  <std_dim1>
4.40004

>  <std_dim2>
1.98897

>  <std_dim3>
1.17274

>  <vol>
381.75

>  <logP(o/w)>
2.814

$$$$
D5.cdx
  MOE2008           3D

 58 61  0  0  0  0  0  0  0  0999 V2000
   -6.0600   -3.5920   -1.3740 C   0  0  0  0  0  0  0  0  0  0  0  0
   -6.5840   -2.8370   -1.9540 H   0  0  0  0  0  0  0  0  0  0  0  0
   -6.7390   -4.3080   -0.3950 C   0  0  0  0  0  0  0  0  0  0  0  0
   -7.7920   -4.1060   -0.2150 H   0  0  0  0  0  0  0  0  0  0  0  0
   -6.0890   -5.2870    0.3620 C   0  0  0  0  0  0  0  0  0  0  0  0
   -6.6330   -5.8410    1.1210 H   0  0  0  0  0  0  0  0  0  0  0  0
   -4.7290   -5.5290    0.1060 C   0  0  0  0  0  0  0  0  0  0  0  0
   -4.0210   -4.8220   -0.8730 C   0  0  0  0  0  0  0  0  0  0  0  0
   -4.7060   -3.8390   -1.6210 C   0  0  0  0  0  0  0  0  0  0  0  0
   -4.1860   -3.2730   -2.3910 H   0  0  0  0  0  0  0  0  0  0  0  0
   -3.8440   -6.4200    0.6760 N   0  0  0  0  0  0  0  0  0  0  0  0
   -2.6060   -6.2890    0.1010 C   0  0  0  0  0  0  0  0  0  0  0  0
   -1.7820   -6.9130    0.4240 H   0  0  0  0  0  0  0  0  0  0  0  0
   -2.6740   -5.3110   -0.8740 C   0  0  0  0  0  0  0  0  0  0  0  0
   -1.5680   -4.8800   -1.7190 C   0  0  0  0  0  0  0  0  0  0  0  0
   -0.2100   -5.5500   -1.5900 C   0  0  0  0  0  0  0  0  0  0  0  0
    0.8030   -4.8080   -0.9850 N   0  0  0  0  0  0  0  0  0  0  0  0
    2.1410   -5.3880   -0.8710 C   0  0  0  0  0  0  0  0  0  0  0  0
    2.1820   -5.8950    0.1000 H   0  0  0  0  0  0  0  0  0  0  0  0
    2.2910   -6.1470   -1.6460 H   0  0  0  0  0  0  0  0  0  0  0  0
    3.2380   -4.3220   -0.9570 C   0  0  0  0  0  0  0  0  0  0  0  0
    3.2130   -3.8530   -1.9470 H   0  0  0  0  0  0  0  0  0  0  0  0
    4.2200   -4.7860   -0.8210 H   0  0  0  0  0  0  0  0  0  0  0  0
    3.0550   -3.2470    0.0300 N   0  0  0  0  0  0  0  0  0  0  0  0
    1.7000   -3.0540    0.5530 C   0  0  0  0  0  0  0  0  0  0  0  0
    1.6210   -3.6790    1.4510 H   0  0  0  0  0  0  0  0  0  0  0  0
    1.5610   -2.0130    0.8640 H   0  0  0  0  0  0  0  0  0  0  0  0
    0.6160   -3.4510   -0.4550 C   0  0  0  0  0  0  0  0  0  0  0  0
    0.6430   -2.7730   -1.3170 H   0  0  0  0  0  0  0  0  0  0  0  0
   -0.3720   -3.3670    0.0070 H   0  0  0  0  0  0  0  0  0  0  0  0
    4.0740   -2.4300    0.5180 C   0  0  0  0  0  0  0  0  0  0  0  0
    5.4150   -2.5190   -0.1020 C   0  0  0  0  0  0  0  0  0  0  0  0
    5.5940   -2.2190   -1.4560 C   0  0  0  0  0  0  0  0  0  0  0  0
    4.7520   -1.9220   -2.0760 H   0  0  0  0  0  0  0  0  0  0  0  0
    6.8710   -2.2870   -2.0130 C   0  0  0  0  0  0  0  0  0  0  0  0
    7.0180   -2.0610   -3.0660 H   0  0  0  0  0  0  0  0  0  0  0  0
    7.9630   -2.6370   -1.2150 C   0  0  0  0  0  0  0  0  0  0  0  0
    8.9580   -2.6860   -1.6510 H   0  0  0  0  0  0  0  0  0  0  0  0
    7.7840   -2.9110    0.1420 C   0  0  0  0  0  0  0  0  0  0  0  0
    8.6390   -3.1700    0.7610 H   0  0  0  0  0  0  0  0  0  0  0  0
    6.5090   -2.8460    0.7050 C   0  0  0  0  0  0  0  0  0  0  0  0
    6.3720   -3.0480    1.7640 H   0  0  0  0  0  0  0  0  0  0  0  0
   -1.6620   -3.9740   -2.5430 O   0  0  0  0  0  0  0  0  0  0  0  0
   -0.0950   -6.6930   -2.0170 O   0  0  0  0  0  0  0  0  0  0  0  0
    3.9350   -1.6390    1.4470 O   0  0  0  0  0  0  0  0  0  0  0  0
   -4.1540   -7.3610    1.7400 C   0  0  0  0  0  0  0  0  0  0  0  0
   -3.2150   -7.6230    2.2430 H   0  0  0  0  0  0  0  0  0  0  0  0
   -4.7680   -6.8270    2.4740 H   0  0  0  0  0  0  0  0  0  0  0  0
   -4.8800   -8.6210    1.2630 C   0  0  0  0  0  0  0  0  0  0  0  0
   -5.1930   -9.1900    2.1470 H   0  0  0  0  0  0  0  0  0  0  0  0
   -5.7930   -8.3500    0.7200 H   0  0  0  0  0  0  0  0  0  0  0  0
   -4.0090   -9.5160    0.3780 C   0  0  0  0  0  0  0  0  0  0  0  0
   -3.7320   -8.9880   -0.5410 H   0  0  0  0  0  0  0  0  0  0  0  0
   -3.0800   -9.7680    0.9020 H   0  0  0  0  0  0  0  0  0  0  0  0
   -4.7330  -10.8000    0.0030 C   0  0  0  0  0  0  0  0  0  0  0  0
   -5.6540  -10.5840   -0.5490 H   0  0  0  0  0  0  0  0  0  0  0  0
   -4.9950  -11.3780    0.8950 H   0  0  0  0  0  0  0  0  0  0  0  0
   -4.0960  -11.4240   -0.6310 H   0  0  0  0  0  0  0  0  0  0  0  0
  1  2  1  0  0  0  0
  1  3  1  0  0  0  0
  1  9  2  0  0  0  0
  3  4  1  0  0  0  0
  3  5  2  0  0  0  0
  5  6  1  0  0  0  0
  5  7  1  0  0  0  0
  7  8  2  0  0  0  0
  7 11  1  0  0  0  0
  8  9  1  0  0  0  0
  8 14  1  0  0  0  0
  9 10  1  0  0  0  0
 11 12  1  0  0  0  0
 11 46  1  0  0  0  0
 12 13  1  0  0  0  0
 12 14  2  0  0  0  0
 14 15  1  0  0  0  0
 15 16  1  0  0  0  0
 15 43  2  0  0  0  0
 16 17  1  0  0  0  0
 16 44  2  0  0  0  0
 17 18  1  0  0  0  0
 17 28  1  0  0  0  0
 18 19  1  0  0  0  0
 18 20  1  0  0  0  0
 18 21  1  0  0  0  0
 21 22  1  0  0  0  0
 21 23  1  0  0  0  0
 21 24  1  0  0  0  0
 24 25  1  0  0  0  0
 24 31  1  0  0  0  0
 25 26  1  0  0  0  0
 25 27  1  0  0  0  0
 25 28  1  0  0  0  0
 28 29  1  0  0  0  0
 28 30  1  0  0  0  0
 31 32  1  0  0  0  0
 31 45  2  0  0  0  0
 32 33  1  0  0  0  0
 32 41  2  0  0  0  0
 33 34  1  0  0  0  0
 33 35  2  0  0  0  0
 35 36  1  0  0  0  0
 35 37  1  0  0  0  0
 37 38  1  0  0  0  0
 37 39  2  0  0  0  0
 39 40  1  0  0  0  0
 39 41  1  0  0  0  0
 41 42  1  0  0  0  0
 46 47  1  0  0  0  0
 46 48  1  0  0  0  0
 46 49  1  0  0  0  0
 49 50  1  0  0  0  0
 49 51  1  0  0  0  0
 49 52  1  0  0  0  0
 52 53  1  0  0  0  0
 52 54  1  0  0  0  0
 52 55  1  0  0  0  0
 55 56  1  0  0  0  0
 55 57  1  0  0  0  0
 55 58  1  0  0  0  0
M  END
>  <Activity>
5.5767

>  <AM1_dipole>
4.43966

>  <AM1_E>
-118828

>  <AM1_Eele>
-974900

>  <AM1_HF>
-11.8749

>  <AM1_HOMO>
-8.76398

>  <AM1_IP>
8.76398

>  <AM1_LUMO>
-0.43563

>  <diameter>
17

>  <petitjean>
0.470588

>  <petitjeanSC>
0.888889

>  <radius>
9

>  <VDistEq>
3.79619

>  <VDistMa>
9.59466

>  <weinerPath>
2947

>  <weinerPol>
51

>  <BCUT_PEOE_0>
-2.7119

>  <BCUT_PEOE_1>
-0.54949

>  <BCUT_PEOE_2>
0.598019

>  <BCUT_PEOE_3>
2.65039

>  <BCUT_SLOGP_0>
-2.86001

>  <BCUT_SLOGP_1>
-0.442005

>  <BCUT_SLOGP_2>
0.69538

>  <BCUT_SLOGP_3>
2.69186

>  <BCUT_SMR_0>
-2.43204

>  <BCUT_SMR_1>
-0.406947

>  <BCUT_SMR_2>
0.753145

>  <BCUT_SMR_3>
2.92051

>  <GCUT_PEOE_0>
-0.869137

>  <GCUT_PEOE_1>
-0.403732

>  <GCUT_PEOE_2>
0.0617611

>  <GCUT_PEOE_3>
2.76037

>  <GCUT_SLOGP_0>
-0.976492

>  <GCUT_SLOGP_1>
-0.283872

>  <GCUT_SLOGP_2>
0.137692

>  <GCUT_SLOGP_3>
2.79228

>  <GCUT_SMR_0>
-0.528102

>  <GCUT_SMR_1>
-0.195713

>  <GCUT_SMR_2>
0.169052

>  <GCUT_SMR_3>
3.03444

>  <a_aro>
15

>  <a_count>
58

>  <a_IC>
85.7748

>  <a_ICM>
1.47888

>  <a_nH>
27

>  <b_1rotN>
8

>  <b_1rotR>
0.235294

>  <b_ar>
16

>  <b_count>
61

>  <b_double>
3

>  <b_rotN>
8

>  <b_rotR>
0.235294

>  <b_single>
42

>  <b_triple>
0

>  <chi0v>
17.7896

>  <chi0v_C>
15.2233

>  <chi1v>
10.8563

>  <chi1v_C>
7.73382

>  <chiral>
0

>  <chiral_u>
0

>  <nmol>
1

>  <reactive>
0

>  <rings>
4

>  <Weight>
417.509

>  <a_heavy>
31

>  <a_nB>
0

>  <a_nBr>
0

>  <a_nC>
25

>  <a_nCl>
0

>  <a_nF>
0

>  <a_nI>
0

>  <a_nN>
3

>  <a_nO>
3

>  <a_nP>
0

>  <a_nS>
0

>  <b_heavy>
34

>  <chi0>
21.7943

>  <chi0_C>
17.0623

>  <chi1>
15.0966

>  <chi1_C>
9.91502

>  <FCharge>
0

>  <VAdjEq>
0.368752

>  <VAdjMa>
6.08746

>  <zagreb>
162

>  <balabanJ>
1.3032

>  <PEOE_PC+>
2.47346

>  <PEOE_PC->
-2.47346

>  <PEOE_RPC+>
0.119306

>  <PEOE_RPC->
0.139855

>  <PEOE_VSA+0>
132.213

>  <PEOE_VSA+1>
78.9855

>  <PEOE_VSA+2>
0

>  <PEOE_VSA+3>
0

>  <PEOE_VSA+4>
0

>  <PEOE_VSA+5>
34.3576

>  <PEOE_VSA+6>
0

>  <PEOE_VSA-0>
45.466

>  <PEOE_VSA-1>
100.978

>  <PEOE_VSA-2>
0

>  <PEOE_VSA-3>
0

>  <PEOE_VSA-4>
0

>  <PEOE_VSA-5>
40.7008

>  <PEOE_VSA-6>
0

>  <PEOE_VSA_FHYD>
0.826535

>  <PEOE_VSA_FNEG>
0.432505

>  <PEOE_VSA_FPNEG>
0.0940621

>  <PEOE_VSA_FPOL>
0.173465

>  <PEOE_VSA_FPOS>
0.567495

>  <PEOE_VSA_FPPOS>
0.0794026

>  <PEOE_VSA_HYD>
357.643

>  <PEOE_VSA_NEG>
187.145

>  <PEOE_VSA_PNEG>
40.7008

>  <PEOE_VSA_POL>
75.0583

>  <PEOE_VSA_POS>
245.556

>  <PEOE_VSA_PPOS>
34.3576

>  <PC+>
4.92

>  <PC->
-4.92

>  <Q_PC+>
4.92

>  <Q_PC->
-4.92

>  <Q_RPC+>
0.133333

>  <Q_RPC->
0.134146

>  <Q_VSA_FHYD>
0.635393

>  <Q_VSA_FNEG>
0.408247

>  <Q_VSA_FPNEG>
0.132763

>  <Q_VSA_FPOL>
0.364607

>  <Q_VSA_FPOS>
0.591753

>  <Q_VSA_FPPOS>
0.231844

>  <Q_VSA_HYD>
274.935

>  <Q_VSA_NEG>
176.649

>  <Q_VSA_PNEG>
57.4467

>  <Q_VSA_POL>
157.766

>  <Q_VSA_POS>
256.052

>  <Q_VSA_PPOS>
100.319

>  <RPC+>
0.133333

>  <RPC->
0.134146

>  <lip_acc>
6

>  <lip_don>
0

>  <lip_druglike>
1

>  <lip_violation>
0

>  <opr_brigid>
22

>  <opr_leadlike>
1

>  <opr_nring>
4

>  <opr_nrot>
8

>  <opr_violation>
0

>  <E>
93.0593

>  <E_ang>
7.81256

>  <E_ele>
30.7497

>  <E_nb>
82.3171

>  <E_oop>
0.0501419

>  <E_sol>
-17.0687

>  <E_stb>
0.46567

>  <E_str>
6.39399

>  <E_strain>
0.00441357

>  <E_tor>
-3.98014

>  <E_vdw>
51.5673

>  <E_rele>
0

>  <E_rnb>
0

>  <E_rsol>
0

>  <E_rvdw>
0

>  <Kier1>
24.1349

>  <Kier2>
11.4215

>  <Kier3>
5.56686

>  <KierA1>
17.2153

>  <KierA2>
8.04788

>  <KierA3>
3.88753

>  <KierFlex>
4.46925

>  <logS>
-4.9678

>  <MNDO_dipole>
2.90854

>  <MNDO_E>
-119114

>  <MNDO_Eele>
-964585

>  <MNDO_HF>
-29.1615

>  <MNDO_HOMO>
-8.7403

>  <MNDO_IP>
8.7403

>  <MNDO_LUMO>
-0.40719

>  <apol>
67.7094

>  <bpol>
38.3306

>  <mr>
12.1509

>  <dipole>
0.827425

>  <dipoleX>
0.174896

>  <dipoleY>
-0.655908

>  <dipoleZ>
0.473104

>  <pmi>
10968.2

>  <pmiX>
8336.42

>  <pmiY>
2091.61

>  <pmiZ>
540.14

>  <rgyr>
5.12548

>  <a_acc>
3

>  <a_acid>
0

>  <a_base>
0

>  <a_don>
0

>  <a_hyd>
22

>  <vsa_acc>
40.7008

>  <vsa_acid>
0

>  <vsa_base>
0

>  <vsa_don>
0

>  <vsa_hyd>
338.424

>  <vsa_other>
34.3576

>  <vsa_pol>
40.7008

>  <PM3_dipole>
3.65252

>  <PM3_E>
-109434

>  <PM3_Eele>
-958593

>  <PM3_HF>
-50.1438

>  <PM3_HOMO>
-8.72308

>  <PM3_IP>
8.72308

>  <PM3_LUMO>
-0.49597

>  <SlogP>
3.8751

>  <SlogP_VSA0>
0

>  <SlogP_VSA1>
24.3529

>  <SlogP_VSA2>
23.8622

>  <SlogP_VSA3>
73.7583

>  <SlogP_VSA4>
54.0956

>  <SlogP_VSA5>
0

>  <SlogP_VSA6>
0

>  <SlogP_VSA7>
180.72

>  <SlogP_VSA8>
37.7368

>  <SlogP_VSA9>
51.7656

>  <SMR>
12.0307

>  <SMR_VSA0>
71.5866

>  <SMR_VSA1>
8.14772

>  <SMR_VSA2>
0

>  <SMR_VSA3>
6.37115

>  <SMR_VSA4>
4.7171

>  <SMR_VSA5>
232.179

>  <SMR_VSA6>
89.9635

>  <SMR_VSA7>
33.326

>  <ASA>
729.071

>  <ASA+>
223.981

>  <ASA->
227.352

>  <ASA_H>
605.217

>  <ASA_P>
123.854

>  <CASA+>
1101.99

>  <CASA->
1118.57

>  <DASA>
3.3712

>  <DCASA>
16.5863

>  <FASA+>
0.307214

>  <FASA->
0.311838

>  <FASA_H>
0.830121

>  <FASA_P>
0.169879

>  <FCASA+>
1.51149

>  <FCASA->
1.53424

>  <VSA>
462.352

>  <TPSA>
62.62

>  <density>
0.713722

>  <vdw_area>
432.701

>  <vdw_vol>
584.974

>  <vsurf_A>
2.29741

>  <vsurf_CP>
0.198915

>  <vsurf_CW1>
2.52732

>  <vsurf_CW2>
1.81014

>  <vsurf_CW3>
0.988187

>  <vsurf_CW4>
0.406802

>  <vsurf_CW5>
0.163336

>  <vsurf_CW6>
0.0590273

>  <vsurf_CW7>
0.00766423

>  <vsurf_CW8>
0

>  <vsurf_D1>
1063.5

>  <vsurf_D2>
636.125

>  <vsurf_D3>
495.25

>  <vsurf_D4>
436.75

>  <vsurf_D5>
386

>  <vsurf_D6>
292.75

>  <vsurf_D7>
162.75

>  <vsurf_D8>
81.625

>  <vsurf_DD12>
1.22474

>  <vsurf_DD13>
3.84057

>  <vsurf_DD23>
2.69258

>  <vsurf_DW12>
5.85235

>  <vsurf_DW13>
5.40833

>  <vsurf_DW23>
0.707107

>  <vsurf_EDmin1>
-2.7309

>  <vsurf_EDmin2>
-2.72835

>  <vsurf_EDmin3>
-2.66977

>  <vsurf_EWmin1>
-5.62185

>  <vsurf_EWmin2>
-5.48693

>  <vsurf_EWmin3>
-5.4175

>  <vsurf_G>
1.40679

>  <vsurf_HB1>
306.375

>  <vsurf_HB2>
318.875

>  <vsurf_HB3>
293.375

>  <vsurf_HB4>
106.5

>  <vsurf_HB5>
34.625

>  <vsurf_HB6>
10.5

>  <vsurf_HB7>
1.625

>  <vsurf_HB8>
0

>  <vsurf_HL1>
0.0699142

>  <vsurf_HL2>
0.0240412

>  <vsurf_ID1>
0.339663

>  <vsurf_ID2>
0.511899

>  <vsurf_ID3>
0.643116

>  <vsurf_ID4>
0.777862

>  <vsurf_ID5>
0.884936

>  <vsurf_ID6>
0.465349

>  <vsurf_ID7>
0.821531

>  <vsurf_ID8>
0.682832

>  <vsurf_IW1>
0.36509

>  <vsurf_IW2>
0.840305

>  <vsurf_IW3>
1.23965

>  <vsurf_IW4>
1.58621

>  <vsurf_IW5>
1.7231

>  <vsurf_IW6>
1.77115

>  <vsurf_IW7>
2.79975

>  <vsurf_IW8>
0

>  <vsurf_R>
1.45424

>  <vsurf_S>
665.899

>  <vsurf_V>
968.375

>  <vsurf_W1>
1420.75

>  <vsurf_W2>
739.625

>  <vsurf_W3>
340.5

>  <vsurf_W4>
106.5

>  <vsurf_W5>
34.625

>  <vsurf_W6>
10.5

>  <vsurf_W7>
1.625

>  <vsurf_W8>
0

>  <vsurf_Wp1>
1114.38

>  <vsurf_Wp2>
420.75

>  <vsurf_Wp3>
47.125

>  <vsurf_Wp4>
0

>  <vsurf_Wp5>
0

>  <vsurf_Wp6>
0

>  <vsurf_Wp7>
0

>  <vsurf_Wp8>
0

>  <dens>
1.00002

>  <glob>
0.0564527

>  <std_dim1>
5.05583

>  <std_dim2>
1.98093

>  <std_dim3>
1.20125

>  <vol>
417.5

>  <logP(o/w)>
3.87

$$$$
D5.cdx
  MOE2008           3D

 53 56  0  0  0  0  0  0  0  0999 V2000
   -4.7780   -8.2520   -1.0480 C   0  0  0  0  0  0  0  0  0  0  0  0
   -5.4550   -7.4390   -1.2960 H   0  0  0  0  0  0  0  0  0  0  0  0
   -5.2680   -9.3990   -0.4350 C   0  0  0  0  0  0  0  0  0  0  0  0
   -6.3280   -9.4740   -0.2060 H   0  0  0  0  0  0  0  0  0  0  0  0
   -4.4190  -10.4600   -0.1090 C   0  0  0  0  0  0  0  0  0  0  0  0
   -4.8160  -11.3490    0.3710 H   0  0  0  0  0  0  0  0  0  0  0  0
   -3.0540  -10.3370   -0.4180 C   0  0  0  0  0  0  0  0  0  0  0  0
   -2.5330   -9.1910   -1.0320 C   0  0  0  0  0  0  0  0  0  0  0  0
   -3.4170   -8.1360   -1.3500 C   0  0  0  0  0  0  0  0  0  0  0  0
   -3.0460   -7.2330   -1.8290 H   0  0  0  0  0  0  0  0  0  0  0  0
   -1.9980  -11.2020   -0.2220 N   0  0  0  0  0  0  0  0  0  0  0  0
   -0.8350  -10.6400   -0.6850 C   0  0  0  0  0  0  0  0  0  0  0  0
    0.1010  -11.1810   -0.6160 H   0  0  0  0  0  0  0  0  0  0  0  0
   -1.1240   -9.3900   -1.1990 C   0  0  0  0  0  0  0  0  0  0  0  0
   -0.1550   -8.4730   -1.7850 C   0  0  0  0  0  0  0  0  0  0  0  0
    1.3070   -8.8770   -1.8780 C   0  0  0  0  0  0  0  0  0  0  0  0
    2.1980   -8.2160   -1.0340 N   0  0  0  0  0  0  0  0  0  0  0  0
    3.6220   -8.5420   -1.1050 C   0  0  0  0  0  0  0  0  0  0  0  0
    3.8020   -9.3310   -0.3650 H   0  0  0  0  0  0  0  0  0  0  0  0
    3.8680   -8.9530   -2.0900 H   0  0  0  0  0  0  0  0  0  0  0  0
    4.5030   -7.3260   -0.8060 C   0  0  0  0  0  0  0  0  0  0  0  0
    4.3440   -6.5620   -1.5750 H   0  0  0  0  0  0  0  0  0  0  0  0
    5.5580   -7.6160   -0.8240 H   0  0  0  0  0  0  0  0  0  0  0  0
    4.1810   -6.7040    0.4880 N   0  0  0  0  0  0  0  0  0  0  0  0
    2.8430   -6.9590    1.0280 C   0  0  0  0  0  0  0  0  0  0  0  0
    2.9260   -7.8550    1.6550 H   0  0  0  0  0  0  0  0  0  0  0  0
    2.5350   -6.1320    1.6770 H   0  0  0  0  0  0  0  0  0  0  0  0
    1.7970   -7.1850   -0.0680 C   0  0  0  0  0  0  0  0  0  0  0  0
    1.6520   -6.2610   -0.6410 H   0  0  0  0  0  0  0  0  0  0  0  0
    0.8360   -7.4540    0.3820 H   0  0  0  0  0  0  0  0  0  0  0  0
    5.0600   -5.9250    1.2400 C   0  0  0  0  0  0  0  0  0  0  0  0
    6.3590   -5.5410    0.6440 C   0  0  0  0  0  0  0  0  0  0  0  0
    6.4080   -4.7730   -0.5240 C   0  0  0  0  0  0  0  0  0  0  0  0
    5.4940   -4.4510   -1.0150 H   0  0  0  0  0  0  0  0  0  0  0  0
    7.6450   -4.4040   -1.0540 C   0  0  0  0  0  0  0  0  0  0  0  0
    7.6910   -3.8120   -1.9640 H   0  0  0  0  0  0  0  0  0  0  0  0
    8.8230   -4.7880   -0.4100 C   0  0  0  0  0  0  0  0  0  0  0  0
    9.7850   -4.4960   -0.8220 H   0  0  0  0  0  0  0  0  0  0  0  0
    8.7700   -5.5330    0.7700 C   0  0  0  0  0  0  0  0  0  0  0  0
    9.6890   -5.8170    1.2750 H   0  0  0  0  0  0  0  0  0  0  0  0
    7.5360   -5.9060    1.3040 C   0  0  0  0  0  0  0  0  0  0  0  0
    7.4950   -6.4760    2.2290 H   0  0  0  0  0  0  0  0  0  0  0  0
   -0.4520   -7.3580   -2.2070 O   0  0  0  0  0  0  0  0  0  0  0  0
    1.6060   -9.7580   -2.6770 O   0  0  0  0  0  0  0  0  0  0  0  0
    4.8280   -5.5400    2.3830 O   0  0  0  0  0  0  0  0  0  0  0  0
   -2.0800  -12.5280    0.3810 C   0  0  0  0  0  0  0  0  0  0  0  0
   -3.0100  -12.9950    0.0350 H   0  0  0  0  0  0  0  0  0  0  0  0
   -1.2510  -13.1240   -0.0170 H   0  0  0  0  0  0  0  0  0  0  0  0
   -1.9880  -12.4630    1.8760 C   0  0  0  0  0  0  0  0  0  0  0  0
   -1.0890  -12.0150    2.2950 H   0  0  0  0  0  0  0  0  0  0  0  0
   -2.9280  -12.9230    2.7100 C   0  0  0  0  0  0  0  0  0  0  0  0
   -3.8420  -13.3810    2.3470 H   0  0  0  0  0  0  0  0  0  0  0  0
   -2.7990  -12.8450    3.7850 H   0  0  0  0  0  0  0  0  0  0  0  0
  1  2  1  0  0  0  0
  1  3  1  0  0  0  0
  1  9  2  0  0  0  0
  3  4  1  0  0  0  0
  3  5  2  0  0  0  0
  5  6  1  0  0  0  0
  5  7  1  0  0  0  0
  7  8  2  0  0  0  0
  7 11  1  0  0  0  0
  8  9  1  0  0  0  0
  8 14  1  0  0  0  0
  9 10  1  0  0  0  0
 11 12  1  0  0  0  0
 11 46  1  0  0  0  0
 12 13  1  0  0  0  0
 12 14  2  0  0  0  0
 14 15  1  0  0  0  0
 15 16  1  0  0  0  0
 15 43  2  0  0  0  0
 16 17  1  0  0  0  0
 16 44  2  0  0  0  0
 17 18  1  0  0  0  0
 17 28  1  0  0  0  0
 18 19  1  0  0  0  0
 18 20  1  0  0  0  0
 18 21  1  0  0  0  0
 21 22  1  0  0  0  0
 21 23  1  0  0  0  0
 21 24  1  0  0  0  0
 24 25  1  0  0  0  0
 24 31  1  0  0  0  0
 25 26  1  0  0  0  0
 25 27  1  0  0  0  0
 25 28  1  0  0  0  0
 28 29  1  0  0  0  0
 28 30  1  0  0  0  0
 31 32  1  0  0  0  0
 31 45  2  0  0  0  0
 32 33  1  0  0  0  0
 32 41  2  0  0  0  0
 33 34  1  0  0  0  0
 33 35  2  0  0  0  0
 35 36  1  0  0  0  0
 35 37  1  0  0  0  0
 37 38  1  0  0  0  0
 37 39  2  0  0  0  0
 39 40  1  0  0  0  0
 39 41  1  0  0  0  0
 41 42  1  0  0  0  0
 46 47  1  0  0  0  0
 46 48  1  0  0  0  0
 46 49  1  0  0  0  0
 49 50  1  0  0  0  0
 49 51  2  0  0  0  0
 51 52  1  0  0  0  0
 51 53  1  0  0  0  0
M  END
>  <Activity>
5.17

>  <AM1_dipole>
4.71711

>  <AM1_E>
-114573

>  <AM1_Eele>
-900924

>  <AM1_HF>
26.2195

>  <AM1_HOMO>
-8.7358

>  <AM1_IP>
8.7358

>  <AM1_LUMO>
-0.42209

>  <diameter>
16

>  <petitjean>
0.5

>  <petitjeanSC>
1

>  <radius>
8

>  <VDistEq>
3.73993

>  <VDistMa>
9.49885

>  <weinerPath>
2672

>  <weinerPol>
50

>  <BCUT_PEOE_0>
-2.71189

>  <BCUT_PEOE_1>
-0.613054

>  <BCUT_PEOE_2>
0.660193

>  <BCUT_PEOE_3>
2.6503

>  <BCUT_SLOGP_0>
-2.86001

>  <BCUT_SLOGP_1>
-0.504968

>  <BCUT_SLOGP_2>
0.718487

>  <BCUT_SLOGP_3>
2.50474

>  <BCUT_SMR_0>
-2.43203

>  <BCUT_SMR_1>
-0.452182

>  <BCUT_SMR_2>
0.81944

>  <BCUT_SMR_3>
2.92038

>  <GCUT_PEOE_0>
-0.864299

>  <GCUT_PEOE_1>
-0.398386

>  <GCUT_PEOE_2>
0.0739867

>  <GCUT_PEOE_3>
2.71218

>  <GCUT_SLOGP_0>
-0.976489

>  <GCUT_SLOGP_1>
-0.3015

>  <GCUT_SLOGP_2>
0.142269

>  <GCUT_SLOGP_3>
2.72242

>  <GCUT_SMR_0>
-0.50895

>  <GCUT_SMR_1>
-0.208566

>  <GCUT_SMR_2>
0.184918

>  <GCUT_SMR_3>
2.99049

>  <a_aro>
15

>  <a_count>
53

>  <a_IC>
79.989

>  <a_ICM>
1.50923

>  <a_nH>
23

>  <b_1rotN>
7

>  <b_1rotR>
0.212121

>  <b_ar>
16

>  <b_count>
56

>  <b_double>
4

>  <b_rotN>
7

>  <b_rotR>
0.212121

>  <b_single>
36

>  <b_triple>
0

>  <chi0v>
16.6599

>  <chi0v_C>
14.0935

>  <chi1v>
9.96574

>  <chi1v_C>
6.84321

>  <chiral>
0

>  <chiral_u>
0

>  <nmol>
1

>  <reactive>
0

>  <rings>
4

>  <Weight>
401.466

>  <a_heavy>
30

>  <a_nB>
0

>  <a_nBr>
0

>  <a_nC>
24

>  <a_nCl>
0

>  <a_nF>
0

>  <a_nI>
0

>  <a_nN>
3

>  <a_nO>
3

>  <a_nP>
0

>  <a_nS>
0

>  <b_heavy>
33

>  <chi0>
21.0872

>  <chi0_C>
16.3552

>  <chi1>
14.5966

>  <chi1_C>
9.41502

>  <FCharge>
0

>  <VAdjEq>
0.378242

>  <VAdjMa>
6.04439

>  <zagreb>
158

>  <balabanJ>
1.30613

>  <PEOE_PC+>
2.48756

>  <PEOE_PC->
-2.48756

>  <PEOE_RPC+>
0.11863

>  <PEOE_RPC->
0.137551

>  <PEOE_VSA+0>
87.1246

>  <PEOE_VSA+1>
107.012

>  <PEOE_VSA+2>
0

>  <PEOE_VSA+3>
0

>  <PEOE_VSA+4>
0

>  <PEOE_VSA+5>
34.3576

>  <PEOE_VSA+6>
0

>  <PEOE_VSA-0>
36.7647

>  <PEOE_VSA-1>
85.7843

>  <PEOE_VSA-2>
22.3013

>  <PEOE_VSA-3>
0

>  <PEOE_VSA-4>
0

>  <PEOE_VSA-5>
40.7008

>  <PEOE_VSA-6>
0

>  <PEOE_VSA_FHYD>
0.818719

>  <PEOE_VSA_FNEG>
0.448142

>  <PEOE_VSA_FPNEG>
0.0983003

>  <PEOE_VSA_FPOL>
0.181281

>  <PEOE_VSA_FPOS>
0.551858

>  <PEOE_VSA_FPPOS>
0.0829803

>  <PEOE_VSA_HYD>
338.987

>  <PEOE_VSA_NEG>
185.551

>  <PEOE_VSA_PNEG>
40.7008

>  <PEOE_VSA_POL>
75.0583

>  <PEOE_VSA_POS>
228.494

>  <PEOE_VSA_PPOS>
34.3576

>  <PC+>
5.508

>  <PC->
-5.508

>  <Q_PC+>
5.508

>  <Q_PC->
-5.508

>  <Q_RPC+>
0.119099

>  <Q_RPC->
0.119826

>  <Q_VSA_FHYD>
0.535505

>  <Q_VSA_FNEG>
0.510101

>  <Q_VSA_FPNEG>
0.222205

>  <Q_VSA_FPOL>
0.464495

>  <Q_VSA_FPOS>
0.489899

>  <Q_VSA_FPPOS>
0.24229

>  <Q_VSA_HYD>
221.723

>  <Q_VSA_NEG>
211.205

>  <Q_VSA_PNEG>
92.0029

>  <Q_VSA_POL>
192.322

>  <Q_VSA_POS>
202.84

>  <Q_VSA_PPOS>
100.319

>  <RPC+>
0.119099

>  <RPC->
0.119826

>  <lip_acc>
6

>  <lip_don>
0

>  <lip_druglike>
1

>  <lip_violation>
0

>  <opr_brigid>
23

>  <opr_leadlike>
1

>  <opr_nring>
4

>  <opr_nrot>
7

>  <opr_violation>
0

>  <E>
102.724

>  <E_ang>
7.26616

>  <E_ele>
36.9378

>  <E_nb>
87.2454

>  <E_oop>
0.0490794

>  <E_sol>
-16.4824

>  <E_stb>
0.452658

>  <E_str>
6.23578

>  <E_strain>
0.00485027

>  <E_tor>
1.47535

>  <E_vdw>
50.3077

>  <E_rele>
0

>  <E_rnb>
0

>  <E_rsol>
0

>  <E_rvdw>
0

>  <Kier1>
23.168

>  <Kier2>
10.7448

>  <Kier3>
5.16797

>  <KierA1>
15.8417

>  <KierA2>
7.24238

>  <KierA3>
3.4481

>  <KierFlex>
3.8244

>  <logS>
-4.41983

>  <MNDO_dipole>
3.50339

>  <MNDO_E>
-114824

>  <MNDO_Eele>
-897302

>  <MNDO_HF>
4.29386

>  <MNDO_HOMO>
-8.71693

>  <MNDO_IP>
8.71693

>  <MNDO_LUMO>
-0.3774

>  <apol>
63.2822

>  <bpol>
33.9578

>  <mr>
11.6234

>  <dipole>
0.832877

>  <dipoleX>
0.316426

>  <dipoleY>
-0.756144

>  <dipoleZ>
0.147664

>  <pmi>
10011.2

>  <pmiX>
7015.17

>  <pmiY>
2266.23

>  <pmiZ>
729.836

>  <rgyr>
4.99367

>  <a_acc>
3

>  <a_acid>
0

>  <a_base>
0

>  <a_don>
0

>  <a_hyd>
21

>  <vsa_acc>
40.7008

>  <vsa_acid>
0

>  <vsa_base>
0

>  <vsa_don>
0

>  <vsa_hyd>
322.616

>  <vsa_other>
34.3576

>  <vsa_pol>
40.7008

>  <PM3_dipole>
4.02518

>  <PM3_E>
-105247

>  <PM3_Eele>
-888652

>  <PM3_HF>
-14.2598

>  <PM3_HOMO>
-8.72393

>  <PM3_IP>
8.72393

>  <PM3_LUMO>
-0.49369

>  <SlogP>
3.261

>  <SlogP_VSA0>
0

>  <SlogP_VSA1>
24.3529

>  <SlogP_VSA2>
23.8622

>  <SlogP_VSA3>
73.7583

>  <SlogP_VSA4>
54.0956

>  <SlogP_VSA5>
0

>  <SlogP_VSA6>
0

>  <SlogP_VSA7>
198.363

>  <SlogP_VSA8>
0

>  <SlogP_VSA9>
50.5404

>  <SMR>
11.5596

>  <SMR_VSA0>
71.5866

>  <SMR_VSA1>
8.14772

>  <SMR_VSA2>
0

>  <SMR_VSA3>
6.37115

>  <SMR_VSA4>
4.7171

>  <SMR_VSA5>
212.086

>  <SMR_VSA6>
89.9635

>  <SMR_VSA7>
32.1008

>  <ASA>
698.482

>  <ASA+>
279.809

>  <ASA->
281.67

>  <ASA_H>
525.537

>  <ASA_P>
172.946

>  <CASA+>
1541.19

>  <CASA->
1551.44

>  <DASA>
1.86048

>  <DCASA>
10.2475

>  <FASA+>
0.400596

>  <FASA->
0.40326

>  <FASA_H>
0.752398

>  <FASA_P>
0.247602

>  <FCASA+>
2.20648

>  <FCASA->
2.22115

>  <VSA>
435.825

>  <TPSA>
62.62

>  <density>
0.723827

>  <vdw_area>
414.045

>  <vdw_vol>
554.644

>  <vsurf_A>
2.18271

>  <vsurf_CP>
0.190747

>  <vsurf_CW1>
2.56743

>  <vsurf_CW2>
1.89327

>  <vsurf_CW3>
1.03457

>  <vsurf_CW4>
0.43114

>  <vsurf_CW5>
0.168471

>  <vsurf_CW6>
0.0581396

>  <vsurf_CW7>
0.00506472

>  <vsurf_CW8>
0

>  <vsurf_D1>
1041.13

>  <vsurf_D2>
614

>  <vsurf_D3>
467.375

>  <vsurf_D4>
407.25

>  <vsurf_D5>
360.625

>  <vsurf_D6>
291.875

>  <vsurf_D7>
158.875

>  <vsurf_D8>
84.625

>  <vsurf_DD12>
1.22474

>  <vsurf_DD13>
2.06155

>  <vsurf_DD23>
0.866025

>  <vsurf_DW12>
5.12348

>  <vsurf_DW13>
0.5

>  <vsurf_DW23>
5.33854

>  <vsurf_EDmin1>
-2.93787

>  <vsurf_EDmin2>
-2.86679

>  <vsurf_EDmin3>
-2.84872

>  <vsurf_EWmin1>
-5.42679

>  <vsurf_EWmin2>
-5.32381

>  <vsurf_EWmin3>
-5.27599

>  <vsurf_G>
1.38641

>  <vsurf_HB1>
292.875

>  <vsurf_HB2>
311.5

>  <vsurf_HB3>
292.25

>  <vsurf_HB4>
107.75

>  <vsurf_HB5>
35

>  <vsurf_HB6>
10.125

>  <vsurf_HB7>
1

>  <vsurf_HB8>
0

>  <vsurf_HL1>
0.0748863

>  <vsurf_HL2>
0.0248619

>  <vsurf_ID1>
0.474161

>  <vsurf_ID2>
0.607712

>  <vsurf_ID3>
0.698402

>  <vsurf_ID4>
0.777496

>  <vsurf_ID5>
0.84087

>  <vsurf_ID6>
0.657275

>  <vsurf_ID7>
0.87302

>  <vsurf_ID8>
0.866928

>  <vsurf_IW1>
0.205146

>  <vsurf_IW2>
0.563746

>  <vsurf_IW3>
1.01503

>  <vsurf_IW4>
1.38217

>  <vsurf_IW5>
1.53907

>  <vsurf_IW6>
1.61686

>  <vsurf_IW7>
3.55016

>  <vsurf_IW8>
0

>  <vsurf_R>
1.45141

>  <vsurf_S>
634.9

>  <vsurf_V>
921.5

>  <vsurf_W1>
1410.63

>  <vsurf_W2>
746

>  <vsurf_W3>
341.375

>  <vsurf_W4>
107.75

>  <vsurf_W5>
35

>  <vsurf_W6>
10.125

>  <vsurf_W7>
1

>  <vsurf_W8>
0

>  <vsurf_Wp1>
1117.75

>  <vsurf_Wp2>
434.5

>  <vsurf_Wp3>
49.125

>  <vsurf_Wp4>
0

>  <vsurf_Wp5>
0

>  <vsurf_Wp6>
0

>  <vsurf_Wp7>
0

>  <vsurf_Wp8>
0

>  <dens>
1.01541

>  <glob>
0.0564669

>  <std_dim1>
4.92682

>  <std_dim2>
1.77255

>  <std_dim3>
1.17075

>  <vol>
395.375

>  <logP(o/w)>
3.135

$$$$
D5.cdx
  MOE2008           3D

 59 63  0  0  0  0  0  0  0  0999 V2000
   -4.6220  -11.9400   -0.3400 C   0  0  0  0  0  0  0  0  0  0  0  0
   -5.2830  -11.0870   -0.2130 H   0  0  0  0  0  0  0  0  0  0  0  0
   -5.0660  -13.0660   -1.0250 C   0  0  0  0  0  0  0  0  0  0  0  0
   -6.0750  -13.0850   -1.4290 H   0  0  0  0  0  0  0  0  0  0  0  0
   -4.2360  -14.1770   -1.2000 C   0  0  0  0  0  0  0  0  0  0  0  0
   -4.5990  -15.0490   -1.7340 H   0  0  0  0  0  0  0  0  0  0  0  0
   -2.9380  -14.1260   -0.6640 C   0  0  0  0  0  0  0  0  0  0  0  0
   -2.4660  -13.0070    0.0320 C   0  0  0  0  0  0  0  0  0  0  0  0
   -3.3290  -11.8990    0.1910 C   0  0  0  0  0  0  0  0  0  0  0  0
   -2.9930  -11.0140    0.7270 H   0  0  0  0  0  0  0  0  0  0  0  0
   -1.9130  -15.0490   -0.6820 N   0  0  0  0  0  0  0  0  0  0  0  0
   -0.8210  -14.5520   -0.0150 C   0  0  0  0  0  0  0  0  0  0  0  0
    0.0830  -15.1430    0.0770 H   0  0  0  0  0  0  0  0  0  0  0  0
   -1.1230  -13.2840    0.4450 C   0  0  0  0  0  0  0  0  0  0  0  0
   -0.2200  -12.4210    1.1970 C   0  0  0  0  0  0  0  0  0  0  0  0
    1.1370  -12.9500    1.6180 C   0  0  0  0  0  0  0  0  0  0  0  0
    2.2230  -12.6240    0.8120 N   0  0  0  0  0  0  0  0  0  0  0  0
    3.5520  -13.1400    1.1430 C   0  0  0  0  0  0  0  0  0  0  0  0
    3.5390  -13.6840    2.0930 H   0  0  0  0  0  0  0  0  0  0  0  0
    3.8170  -13.8550    0.3550 H   0  0  0  0  0  0  0  0  0  0  0  0
    4.5950  -12.0160    1.2000 C   0  0  0  0  0  0  0  0  0  0  0  0
    5.5840  -12.4620    1.3260 H   0  0  0  0  0  0  0  0  0  0  0  0
    4.4010  -11.3630    2.0590 H   0  0  0  0  0  0  0  0  0  0  0  0
    4.5300  -11.1670   -0.0020 N   0  0  0  0  0  0  0  0  0  0  0  0
    3.1930  -10.6550   -0.3230 C   0  0  0  0  0  0  0  0  0  0  0  0
    2.9230   -9.9560    0.4780 H   0  0  0  0  0  0  0  0  0  0  0  0
    3.1960  -10.0940   -1.2620 H   0  0  0  0  0  0  0  0  0  0  0  0
    2.1640  -11.7880   -0.3950 C   0  0  0  0  0  0  0  0  0  0  0  0
    2.3870  -12.4450   -1.2440 H   0  0  0  0  0  0  0  0  0  0  0  0
    1.1660  -11.3720   -0.5530 H   0  0  0  0  0  0  0  0  0  0  0  0
    5.5990  -10.8330   -0.8290 C   0  0  0  0  0  0  0  0  0  0  0  0
    6.9700  -11.1860   -0.4020 C   0  0  0  0  0  0  0  0  0  0  0  0
    7.7400  -12.0170   -1.2220 C   0  0  0  0  0  0  0  0  0  0  0  0
    7.3260  -12.4140   -2.1450 H   0  0  0  0  0  0  0  0  0  0  0  0
    9.0460  -12.3330   -0.8480 C   0  0  0  0  0  0  0  0  0  0  0  0
    9.6500  -12.9810   -1.4770 H   0  0  0  0  0  0  0  0  0  0  0  0
    9.5800  -11.8100    0.3320 C   0  0  0  0  0  0  0  0  0  0  0  0
   10.5990  -12.0560    0.6200 H   0  0  0  0  0  0  0  0  0  0  0  0
    8.8150  -10.9630    1.1370 C   0  0  0  0  0  0  0  0  0  0  0  0
    9.2410  -10.5490    2.0480 H   0  0  0  0  0  0  0  0  0  0  0  0
    7.5090  -10.6410    0.7690 C   0  0  0  0  0  0  0  0  0  0  0  0
    6.9220   -9.9680    1.3870 H   0  0  0  0  0  0  0  0  0  0  0  0
   -0.4880  -11.2650    1.5110 O   0  0  0  0  0  0  0  0  0  0  0  0
    1.1810  -13.6460    2.6270 O   0  0  0  0  0  0  0  0  0  0  0  0
    5.4830  -10.2580   -1.9070 O   0  0  0  0  0  0  0  0  0  0  0  0
   -1.9470  -16.3580   -1.3310 C   0  0  0  0  0  0  0  0  0  0  0  0
   -2.3700  -16.2030   -2.3310 H   0  0  0  0  0  0  0  0  0  0  0  0
   -0.9150  -16.7000   -1.4680 H   0  0  0  0  0  0  0  0  0  0  0  0
   -2.7230  -17.3860   -0.5470 C   0  0  0  0  0  0  0  0  0  0  0  0
   -2.3810  -17.7070    0.7760 C   0  0  0  0  0  0  0  0  0  0  0  0
   -1.5620  -17.1960    1.2770 H   0  0  0  0  0  0  0  0  0  0  0  0
   -3.0870  -18.6910    1.4730 C   0  0  0  0  0  0  0  0  0  0  0  0
   -2.8160  -18.9290    2.4990 H   0  0  0  0  0  0  0  0  0  0  0  0
   -4.1340  -19.3730    0.8560 C   0  0  0  0  0  0  0  0  0  0  0  0
   -4.6790  -20.1410    1.3990 H   0  0  0  0  0  0  0  0  0  0  0  0
   -4.4780  -19.0720   -0.4600 C   0  0  0  0  0  0  0  0  0  0  0  0
   -5.2900  -19.6090   -0.9440 H   0  0  0  0  0  0  0  0  0  0  0  0
   -3.7750  -18.0870   -1.1580 C   0  0  0  0  0  0  0  0  0  0  0  0
   -4.0550  -17.8730   -2.1870 H   0  0  0  0  0  0  0  0  0  0  0  0
  1  2  1  0  0  0  0
  1  3  1  0  0  0  0
  1  9  2  0  0  0  0
  3  4  1  0  0  0  0
  3  5  2  0  0  0  0
  5  6  1  0  0  0  0
  5  7  1  0  0  0  0
  7  8  2  0  0  0  0
  7 11  1  0  0  0  0
  8  9  1  0  0  0  0
  8 14  1  0  0  0  0
  9 10  1  0  0  0  0
 11 12  1  0  0  0  0
 11 46  1  0  0  0  0
 12 13  1  0  0  0  0
 12 14  2  0  0  0  0
 14 15  1  0  0  0  0
 15 16  1  0  0  0  0
 15 43  2  0  0  0  0
 16 17  1  0  0  0  0
 16 44  2  0  0  0  0
 17 18  1  0  0  0  0
 17 28  1  0  0  0  0
 18 19  1  0  0  0  0
 18 20  1  0  0  0  0
 18 21  1  0  0  0  0
 21 22  1  0  0  0  0
 21 23  1  0  0  0  0
 21 24  1  0  0  0  0
 24 25  1  0  0  0  0
 24 31  1  0  0  0  0
 25 26  1  0  0  0  0
 25 27  1  0  0  0  0
 25 28  1  0  0  0  0
 28 29  1  0  0  0  0
 28 30  1  0  0  0  0
 31 32  1  0  0  0  0
 31 45  2  0  0  0  0
 32 33  1  0  0  0  0
 32 41  2  0  0  0  0
 33 34  1  0  0  0  0
 33 35  2  0  0  0  0
 35 36  1  0  0  0  0
 35 37  1  0  0  0  0
 37 38  1  0  0  0  0
 37 39  2  0  0  0  0
 39 40  1  0  0  0  0
 39 41  1  0  0  0  0
 41 42  1  0  0  0  0
 46 47  1  0  0  0  0
 46 48  1  0  0  0  0
 46 49  1  0  0  0  0
 49 50  1  0  0  0  0
 49 58  2  0  0  0  0
 50 51  1  0  0  0  0
 50 52  2  0  0  0  0
 52 53  1  0  0  0  0
 52 54  1  0  0  0  0
 54 55  1  0  0  0  0
 54 56  2  0  0  0  0
 56 57  1  0  0  0  0
 56 58  1  0  0  0  0
 58 59  1  0  0  0  0
M  END
>  <Activity>
4.8616

>  <AM1_dipole>
5.27489

>  <AM1_E>
-127023

>  <AM1_Eele>
-1.06924e+006

>  <AM1_HF>
33.7853

>  <AM1_HOMO>
-8.7533

>  <AM1_IP>
8.7533

>  <AM1_LUMO>
-0.42732

>  <diameter>
18

>  <petitjean>
0.5

>  <petitjeanSC>
1

>  <radius>
9

>  <VDistEq>
3.89305

>  <VDistMa>
9.86437

>  <weinerPath>
3786

>  <weinerPol>
56

>  <BCUT_PEOE_0>
-2.71189

>  <BCUT_PEOE_1>
-0.617756

>  <BCUT_PEOE_2>
0.664741

>  <BCUT_PEOE_3>
2.6503

>  <BCUT_SLOGP_0>
-2.86001

>  <BCUT_SLOGP_1>
-0.50891

>  <BCUT_SLOGP_2>
0.72122

>  <BCUT_SLOGP_3>
2.50564

>  <BCUT_SMR_0>
-2.43203

>  <BCUT_SMR_1>
-0.458405

>  <BCUT_SMR_2>
0.82282

>  <BCUT_SMR_3>
2.92039

>  <GCUT_PEOE_0>
-0.862955

>  <GCUT_PEOE_1>
-0.399027

>  <GCUT_PEOE_2>
0.073529

>  <GCUT_PEOE_3>
2.75874

>  <GCUT_SLOGP_0>
-0.97649

>  <GCUT_SLOGP_1>
-0.29259

>  <GCUT_SLOGP_2>
0.142569

>  <GCUT_SLOGP_3>
2.79169

>  <GCUT_SMR_0>
-0.508947

>  <GCUT_SMR_1>
-0.20983

>  <GCUT_SMR_2>
0.185306

>  <GCUT_SMR_3>
3.04201

>  <a_aro>
21

>  <a_count>
59

>  <a_IC>
86.8638

>  <a_ICM>
1.47227

>  <a_nH>
25

>  <b_1rotN>
7

>  <b_1rotR>
0.184211

>  <b_ar>
22

>  <b_count>
63

>  <b_double>
3

>  <b_rotN>
7

>  <b_rotR>
0.184211

>  <b_single>
38

>  <b_triple>
0

>  <chi0v>
18.7622

>  <chi0v_C>
16.1958

>  <chi1v>
11.4135

>  <chi1v_C>
8.29095

>  <chiral>
0

>  <chiral_u>
0

>  <nmol>
1

>  <reactive>
0

>  <rings>
5

>  <Weight>
451.526

>  <a_heavy>
34

>  <a_nB>
0

>  <a_nBr>
0

>  <a_nC>
28

>  <a_nCl>
0

>  <a_nF>
0

>  <a_nI>
0

>  <a_nN>
3

>  <a_nO>
3

>  <a_nP>
0

>  <a_nS>
0

>  <b_heavy>
38

>  <chi0>
23.493

>  <chi0_C>
18.7609

>  <chi1>
16.6142

>  <chi1_C>
11.4327

>  <FCharge>
0

>  <VAdjEq>
0.349836

>  <VAdjMa>
6.24793

>  <zagreb>
182

>  <balabanJ>
1.15231

>  <PEOE_PC+>
2.64052

>  <PEOE_PC->
-2.64052

>  <PEOE_RPC+>
0.111758

>  <PEOE_RPC->
0.129364

>  <PEOE_VSA+0>
87.1246

>  <PEOE_VSA+1>
115.543

>  <PEOE_VSA+2>
0

>  <PEOE_VSA+3>
0

>  <PEOE_VSA+4>
0

>  <PEOE_VSA+5>
34.3576

>  <PEOE_VSA+6>
0

>  <PEOE_VSA-0>
38.9733

>  <PEOE_VSA-1>
134.804

>  <PEOE_VSA-2>
0

>  <PEOE_VSA-3>
0

>  <PEOE_VSA-4>
0

>  <PEOE_VSA-5>
40.7008

>  <PEOE_VSA-6>
0

>  <PEOE_VSA_FHYD>
0.833759

>  <PEOE_VSA_FNEG>
0.475031

>  <PEOE_VSA_FPNEG>
0.0901451

>  <PEOE_VSA_FPOL>
0.166241

>  <PEOE_VSA_FPOS>
0.524969

>  <PEOE_VSA_FPPOS>
0.076096

>  <PEOE_VSA_HYD>
376.445

>  <PEOE_VSA_NEG>
214.478

>  <PEOE_VSA_PNEG>
40.7008

>  <PEOE_VSA_POL>
75.0583

>  <PEOE_VSA_POS>
237.025

>  <PEOE_VSA_PPOS>
34.3576

>  <PC+>
5.813

>  <PC->
-5.814

>  <Q_PC+>
5.813

>  <Q_PC->
-5.814

>  <Q_RPC+>
0.112851

>  <Q_RPC->
0.113519

>  <Q_VSA_FHYD>
0.650576

>  <Q_VSA_FNEG>
0.53185

>  <Q_VSA_FPNEG>
0.127234

>  <Q_VSA_FPOL>
0.349424

>  <Q_VSA_FPOS>
0.46815

>  <Q_VSA_FPPOS>
0.22219

>  <Q_VSA_HYD>
293.737

>  <Q_VSA_NEG>
240.132

>  <Q_VSA_PNEG>
57.4467

>  <Q_VSA_POL>
157.766

>  <Q_VSA_POS>
211.371

>  <Q_VSA_PPOS>
100.319

>  <RPC+>
0.112851

>  <RPC->
0.113519

>  <lip_acc>
6

>  <lip_don>
0

>  <lip_druglike>
1

>  <lip_violation>
0

>  <opr_brigid>
28

>  <opr_leadlike>
0

>  <opr_nring>
5

>  <opr_nrot>
7

>  <opr_violation>
2

>  <E>
118.096

>  <E_ang>
8.8329

>  <E_ele>
36.563

>  <E_nb>
99.0686

>  <E_oop>
0.0616089

>  <E_sol>
-16.5709

>  <E_stb>
0.448099

>  <E_str>
7.71901

>  <E_strain>
0.00544399

>  <E_tor>
1.96568

>  <E_vdw>
62.5056

>  <E_rele>
0

>  <E_rnb>
-9.9476e-014

>  <E_rsol>
-9.9476e-014

>  <E_rvdw>
0

>  <Kier1>
25.6413

>  <Kier2>
12.0299

>  <Kier3>
5.95684

>  <KierA1>
17.4544

>  <KierA2>
8.08541

>  <KierA3>
3.96792

>  <KierFlex>
4.15077

>  <logS>
-5.6915

>  <MNDO_dipole>
5.50476

>  <MNDO_E>
-127267

>  <MNDO_Eele>
-1.05599e+006

>  <MNDO_HF>
13.8739

>  <MNDO_HOMO>
-8.71017

>  <MNDO_IP>
8.71017

>  <MNDO_LUMO>
-0.39403

>  <apol>
71.6558

>  <bpol>
36.1442

>  <mr>
13.2433

>  <dipole>
1.19746

>  <dipoleX>
0.439783

>  <dipoleY>
-1.06564

>  <dipoleZ>
-0.323903

>  <pmi>
12811.5

>  <pmiX>
9132.57

>  <pmiY>
3134.73

>  <pmiZ>
544.182

>  <rgyr>
5.3267

>  <a_acc>
3

>  <a_acid>
0

>  <a_base>
0

>  <a_don>
0

>  <a_hyd>
25

>  <vsa_acc>
40.7008

>  <vsa_acid>
0

>  <vsa_base>
0

>  <vsa_don>
0

>  <vsa_hyd>
358.65

>  <vsa_other>
34.3576

>  <vsa_pol>
40.7008

>  <PM3_dipole>
5.53172

>  <PM3_E>
-116893

>  <PM3_Eele>
-1.05648e+006

>  <PM3_HF>
-9.17173

>  <PM3_HOMO>
-8.70403

>  <PM3_IP>
8.70403

>  <PM3_LUMO>
-0.49094

>  <SlogP>
4.1233

>  <SlogP_VSA0>
0

>  <SlogP_VSA1>
24.3529

>  <SlogP_VSA2>
23.8622

>  <SlogP_VSA3>
73.7583

>  <SlogP_VSA4>
57.2812

>  <SlogP_VSA5>
0

>  <SlogP_VSA6>
0

>  <SlogP_VSA7>
268.936

>  <SlogP_VSA8>
0

>  <SlogP_VSA9>
18.4396

>  <SMR>
13.0943

>  <SMR_VSA0>
71.5866

>  <SMR_VSA1>
8.14772

>  <SMR_VSA2>
0

>  <SMR_VSA3>
9.55672

>  <SMR_VSA4>
4.7171

>  <SMR_VSA5>
282.659

>  <SMR_VSA6>
89.9635

>  <SMR_VSA7>
0

>  <ASA>
758.438

>  <ASA+>
312.043

>  <ASA->
312.827

>  <ASA_H>
633.432

>  <ASA_P>
125.006

>  <CASA+>
1813.91

>  <CASA->
1818.77

>  <DASA>
0.783412

>  <DCASA>
4.8668

>  <FASA+>
0.411429

>  <FASA->
0.412462

>  <FASA_H>
0.83518

>  <FASA_P>
0.16482

>  <FCASA+>
2.39163

>  <FCASA->
2.39805

>  <VSA>
478.072

>  <TPSA>
62.62

>  <density>
0.720527

>  <vdw_area>
451.503

>  <vdw_vol>
626.661

>  <vsurf_A>
3.41656

>  <vsurf_CP>
0.19261

>  <vsurf_CW1>
2.53362

>  <vsurf_CW2>
1.89237

>  <vsurf_CW3>
0.966762

>  <vsurf_CW4>
0.401745

>  <vsurf_CW5>
0.166991

>  <vsurf_CW6>
0.0525714

>  <vsurf_CW7>
0.00738434

>  <vsurf_CW8>
0

>  <vsurf_D1>
1163.88

>  <vsurf_D2>
691.25

>  <vsurf_D3>
525.5

>  <vsurf_D4>
459

>  <vsurf_D5>
407.375

>  <vsurf_D6>
335

>  <vsurf_D7>
189.875

>  <vsurf_D8>
97.5

>  <vsurf_DD12>
0.707107

>  <vsurf_DD13>
0.5

>  <vsurf_DD23>
1.11803

>  <vsurf_DW12>
5.3619

>  <vsurf_DW13>
0.866025

>  <vsurf_DW23>
5.91608

>  <vsurf_EDmin1>
-2.85593

>  <vsurf_EDmin2>
-2.81554

>  <vsurf_EDmin3>
-2.76201

>  <vsurf_EWmin1>
-5.43084

>  <vsurf_EWmin2>
-5.37666

>  <vsurf_EWmin3>
-5.34873

>  <vsurf_G>
1.41155

>  <vsurf_HB1>
294.875

>  <vsurf_HB2>
290.875

>  <vsurf_HB3>
286.625

>  <vsurf_HB4>
109.25

>  <vsurf_HB5>
37

>  <vsurf_HB6>
9.25

>  <vsurf_HB7>
1.75

>  <vsurf_HB8>
0

>  <vsurf_HL1>
0.0704091

>  <vsurf_HL2>
0.0201525

>  <vsurf_ID1>
0.850241

>  <vsurf_ID2>
0.858394

>  <vsurf_ID3>
0.920861

>  <vsurf_ID4>
1.02221

>  <vsurf_ID5>
1.17322

>  <vsurf_ID6>
1.30379

>  <vsurf_ID7>
1.30822

>  <vsurf_ID8>
1.38695

>  <vsurf_IW1>
0.211144

>  <vsurf_IW2>
0.983268

>  <vsurf_IW3>
1.99619

>  <vsurf_IW4>
2.48453

>  <vsurf_IW5>
2.52006

>  <vsurf_IW6>
2.46338

>  <vsurf_IW7>
3.23372

>  <vsurf_IW8>
0

>  <vsurf_R>
1.47675

>  <vsurf_S>
693.671

>  <vsurf_V>
1024.38

>  <vsurf_W1>
1525.25

>  <vsurf_W2>
794

>  <vsurf_W3>
340.75

>  <vsurf_W4>
109.25

>  <vsurf_W5>
37

>  <vsurf_W6>
9.25

>  <vsurf_W7>
1.75

>  <vsurf_W8>
0

>  <vsurf_Wp1>
1230.38

>  <vsurf_Wp2>
503.125

>  <vsurf_Wp3>
54.125

>  <vsurf_Wp4>
0

>  <vsurf_Wp5>
0

>  <vsurf_Wp6>
0

>  <vsurf_Wp7>
0

>  <vsurf_Wp8>
0

>  <dens>
1.01609

>  <glob>
0.0575789

>  <std_dim1>
5.13614

>  <std_dim2>
2.06861

>  <std_dim3>
1.23245

>  <vol>
444.375

>  <logP(o/w)>
4.261

$$$$
D6.cdx
  MOE2008           3D

 46 49  0  0  0  0  0  0  0  0999 V2000
   -7.9110   18.2120   -0.2330 C   0  0  0  0  0  0  0  0  0  0  0  0
   -8.5690   18.8860   -0.7740 H   0  0  0  0  0  0  0  0  0  0  0  0
   -8.4020   17.4820    0.8460 C   0  0  0  0  0  0  0  0  0  0  0  0
   -9.4430   17.5940    1.1400 H   0  0  0  0  0  0  0  0  0  0  0  0
   -7.5780   16.6060    1.5590 C   0  0  0  0  0  0  0  0  0  0  0  0
   -7.9670   16.0380    2.3990 H   0  0  0  0  0  0  0  0  0  0  0  0
   -6.2440   16.4900    1.1490 C   0  0  0  0  0  0  0  0  0  0  0  0
   -5.7190   17.2060    0.0700 C   0  0  0  0  0  0  0  0  0  0  0  0
   -6.5750   18.0830   -0.6300 C   0  0  0  0  0  0  0  0  0  0  0  0
   -6.2030   18.6570   -1.4760 H   0  0  0  0  0  0  0  0  0  0  0  0
   -5.2280   15.7170    1.6560 N   0  0  0  0  0  0  0  0  0  0  0  0
   -5.3230   15.0890    2.4430 H   0  0  0  0  0  0  0  0  0  0  0  0
   -4.0780   15.9190    0.9410 C   0  0  0  0  0  0  0  0  0  0  0  0
   -3.1750   15.3820    1.2050 H   0  0  0  0  0  0  0  0  0  0  0  0
   -4.3400   16.8360   -0.0600 C   0  0  0  0  0  0  0  0  0  0  0  0
   -3.3780   17.3190   -1.0430 C   0  0  0  0  0  0  0  0  0  0  0  0
   -1.9510   16.8050   -1.0190 C   0  0  0  0  0  0  0  0  0  0  0  0
   -0.9910   17.6260   -0.4360 N   0  0  0  0  0  0  0  0  0  0  0  0
    0.4010   17.1780   -0.3670 C   0  0  0  0  0  0  0  0  0  0  0  0
    0.6270   17.0120    0.6940 H   0  0  0  0  0  0  0  0  0  0  0  0
    0.5350   16.2240   -0.8870 H   0  0  0  0  0  0  0  0  0  0  0  0
    1.3600   18.2280   -0.9460 C   0  0  0  0  0  0  0  0  0  0  0  0
    1.2160   18.3140   -2.0290 H   0  0  0  0  0  0  0  0  0  0  0  0
    2.3870   17.9050   -0.7650 H   0  0  0  0  0  0  0  0  0  0  0  0
    1.0990   19.5600   -0.3760 N   0  0  0  0  0  0  0  0  0  0  0  0
   -0.2990   19.9990   -0.4510 C   0  0  0  0  0  0  0  0  0  0  0  0
   -0.4420   20.9600    0.0520 H   0  0  0  0  0  0  0  0  0  0  0  0
   -0.5270   20.1440   -1.5140 H   0  0  0  0  0  0  0  0  0  0  0  0
   -1.2450   18.9510    0.1480 C   0  0  0  0  0  0  0  0  0  0  0  0
   -2.2810   19.2640    0.0100 H   0  0  0  0  0  0  0  0  0  0  0  0
   -1.0680   18.8580    1.2260 H   0  0  0  0  0  0  0  0  0  0  0  0
    2.0430   20.4030    0.2050 C   0  0  0  0  0  0  0  0  0  0  0  0
    3.4680   20.0300    0.1530 C   0  0  0  0  0  0  0  0  0  0  0  0
    4.1410   19.9580   -1.0650 C   0  0  0  0  0  0  0  0  0  0  0  0
    5.4960   19.6420   -1.1030 C   0  0  0  0  0  0  0  0  0  0  0  0
    6.0100   19.5820   -2.0570 H   0  0  0  0  0  0  0  0  0  0  0  0
    6.1850   19.4120    0.0890 C   0  0  0  0  0  0  0  0  0  0  0  0
    7.2440   19.1680    0.0660 H   0  0  0  0  0  0  0  0  0  0  0  0
    5.5180   19.5040    1.3140 C   0  0  0  0  0  0  0  0  0  0  0  0
    6.0620   19.3370    2.2410 H   0  0  0  0  0  0  0  0  0  0  0  0
    4.1590   19.8200    1.3510 C   0  0  0  0  0  0  0  0  0  0  0  0
    3.6440   19.9050    2.3040 H   0  0  0  0  0  0  0  0  0  0  0  0
   -3.6530   18.1460   -1.9090 O   0  0  0  0  0  0  0  0  0  0  0  0
   -1.7430   15.6980   -1.5050 O   0  0  0  0  0  0  0  0  0  0  0  0
    1.7690   21.4480    0.7880 O   0  0  0  0  0  0  0  0  0  0  0  0
    3.4970   20.1890   -2.2180 F   0  0  0  0  0  0  0  0  0  0  0  0
  1  2  1  0  0  0  0
  1  3  1  0  0  0  0
  1  9  2  0  0  0  0
  3  4  1  0  0  0  0
  3  5  2  0  0  0  0
  5  6  1  0  0  0  0
  5  7  1  0  0  0  0
  7  8  2  0  0  0  0
  7 11  1  0  0  0  0
  8  9  1  0  0  0  0
  8 15  1  0  0  0  0
  9 10  1  0  0  0  0
 11 12  1  0  0  0  0
 11 13  1  0  0  0  0
 13 14  1  0  0  0  0
 13 15  2  0  0  0  0
 15 16  1  0  0  0  0
 16 17  1  0  0  0  0
 16 43  2  0  0  0  0
 17 18  1  0  0  0  0
 17 44  2  0  0  0  0
 18 19  1  0  0  0  0
 18 29  1  0  0  0  0
 19 20  1  0  0  0  0
 19 21  1  0  0  0  0
 19 22  1  0  0  0  0
 22 23  1  0  0  0  0
 22 24  1  0  0  0  0
 22 25  1  0  0  0  0
 25 26  1  0  0  0  0
 25 32  1  0  0  0  0
 26 27  1  0  0  0  0
 26 28  1  0  0  0  0
 26 29  1  0  0  0  0
 29 30  1  0  0  0  0
 29 31  1  0  0  0  0
 32 33  1  0  0  0  0
 32 45  2  0  0  0  0
 33 34  1  0  0  0  0
 33 41  2  0  0  0  0
 34 35  2  0  0  0  0
 34 46  1  0  0  0  0
 35 36  1  0  0  0  0
 35 37  1  0  0  0  0
 37 38  1  0  0  0  0
 37 39  2  0  0  0  0
 39 40  1  0  0  0  0
 39 41  1  0  0  0  0
 41 42  1  0  0  0  0
M  END
>  <Activity>
6.4078

>  <AM1_dipole>
5.96623

>  <AM1_E>
-115336

>  <AM1_Eele>
-836549

>  <AM1_HF>
-19.7229

>  <AM1_HOMO>
-8.88738

>  <AM1_IP>
8.88738

>  <AM1_LUMO>
-0.4855

>  <diameter>
15

>  <petitjean>
0.466667

>  <petitjeanSC>
0.875

>  <radius>
8

>  <VDistEq>
3.66783

>  <VDistMa>
9.29216

>  <weinerPath>
2222

>  <weinerPol>
47

>  <BCUT_PEOE_0>
-2.71143

>  <BCUT_PEOE_1>
-0.63941

>  <BCUT_PEOE_2>
0.655421

>  <BCUT_PEOE_3>
2.65092

>  <BCUT_SLOGP_0>
-2.86009

>  <BCUT_SLOGP_1>
-0.509483

>  <BCUT_SLOGP_2>
0.719957

>  <BCUT_SLOGP_3>
2.50296

>  <BCUT_SMR_0>
-2.43204

>  <BCUT_SMR_1>
-0.43338

>  <BCUT_SMR_2>
0.826244

>  <BCUT_SMR_3>
2.92022

>  <GCUT_PEOE_0>
-0.860602

>  <GCUT_PEOE_1>
-0.434103

>  <GCUT_PEOE_2>
0.064322

>  <GCUT_PEOE_3>
2.65151

>  <GCUT_SLOGP_0>
-0.976486

>  <GCUT_SLOGP_1>
-0.335836

>  <GCUT_SLOGP_2>
0.142683

>  <GCUT_SLOGP_3>
2.62922

>  <GCUT_SMR_0>
-0.508917

>  <GCUT_SMR_1>
-0.215861

>  <GCUT_SMR_2>
0.193275

>  <GCUT_SMR_3>
2.92009

>  <a_aro>
15

>  <a_count>
46

>  <a_IC>
77.2768

>  <a_ICM>
1.67993

>  <a_nH>
18

>  <b_1rotN>
5

>  <b_1rotR>
0.16129

>  <b_ar>
16

>  <b_count>
49

>  <b_double>
3

>  <b_rotN>
5

>  <b_rotR>
0.16129

>  <b_single>
30

>  <b_triple>
0

>  <chi0v>
15.0217

>  <chi0v_C>
12.0246

>  <chi1v>
8.99553

>  <chi1v_C>
5.94338

>  <chiral>
0

>  <chiral_u>
0

>  <nmol>
1

>  <reactive>
0

>  <rings>
4

>  <Weight>
379.391

>  <a_heavy>
28

>  <a_nB>
0

>  <a_nBr>
0

>  <a_nC>
21

>  <a_nCl>
0

>  <a_nF>
1

>  <a_nI>
0

>  <a_nN>
3

>  <a_nO>
3

>  <a_nP>
0

>  <a_nS>
0

>  <b_heavy>
31

>  <chi0>
19.673

>  <chi0_C>
13.8112

>  <chi1>
13.5586

>  <chi1_C>
8.04124

>  <FCharge>
0

>  <VAdjEq>
0.398935

>  <VAdjMa>
5.9542

>  <zagreb>
150

>  <balabanJ>
1.28292

>  <PEOE_PC+>
2.44704

>  <PEOE_PC->
-2.44704

>  <PEOE_RPC+>
0.120595

>  <PEOE_RPC->
0.147094

>  <PEOE_VSA+0>
78.4233

>  <PEOE_VSA+1>
76.9286

>  <PEOE_VSA+2>
9.02085

>  <PEOE_VSA+3>
8.61901

>  <PEOE_VSA+4>
0

>  <PEOE_VSA+5>
34.3576

>  <PEOE_VSA+6>
0

>  <PEOE_VSA-0>
36.7647

>  <PEOE_VSA-1>
61.2745

>  <PEOE_VSA-2>
0

>  <PEOE_VSA-3>
0

>  <PEOE_VSA-4>
11.9086

>  <PEOE_VSA-5>
40.7008

>  <PEOE_VSA-6>
0.136891

>  <PEOE_VSA_FHYD>
0.756785

>  <PEOE_VSA_FNEG>
0.42103

>  <PEOE_VSA_FPNEG>
0.14728

>  <PEOE_VSA_FPOL>
0.243215

>  <PEOE_VSA_FPOS>
0.57897

>  <PEOE_VSA_FPPOS>
0.0959347

>  <PEOE_VSA_HYD>
271.031

>  <PEOE_VSA_NEG>
150.786

>  <PEOE_VSA_PNEG>
52.7463

>  <PEOE_VSA_POL>
87.1039

>  <PEOE_VSA_POS>
207.349

>  <PEOE_VSA_PPOS>
34.3576

>  <PC+>
4.959

>  <PC->
-4.96

>  <Q_PC+>
4.959

>  <Q_PC->
-4.96

>  <Q_RPC+>
0.132285

>  <Q_RPC->
0.133065

>  <Q_VSA_FHYD>
0.572249

>  <Q_VSA_FNEG>
0.49228

>  <Q_VSA_FPNEG>
0.160405

>  <Q_VSA_FPOL>
0.427751

>  <Q_VSA_FPOS>
0.50772

>  <Q_VSA_FPPOS>
0.267346

>  <Q_VSA_HYD>
204.942

>  <Q_VSA_NEG>
176.303

>  <Q_VSA_PNEG>
57.4467

>  <Q_VSA_POL>
153.193

>  <Q_VSA_POS>
181.832

>  <Q_VSA_PPOS>
95.7459

>  <RPC+>
0.132285

>  <RPC->
0.133065

>  <lip_acc>
6

>  <lip_don>
1

>  <lip_druglike>
1

>  <lip_violation>
0

>  <opr_brigid>
22

>  <opr_leadlike>
1

>  <opr_nring>
4

>  <opr_nrot>
5

>  <opr_violation>
0

>  <E>
89.1569

>  <E_ang>
8.26099

>  <E_ele>
28.1853

>  <E_nb>
73.1157

>  <E_oop>
0.0297022

>  <E_sol>
-19.0277

>  <E_stb>
0.232901

>  <E_str>
5.68922

>  <E_strain>
0.00609495

>  <E_tor>
1.82834

>  <E_vdw>
44.9304

>  <E_rele>
0

>  <E_rnb>
0

>  <E_rsol>
0

>  <E_rvdw>
0

>  <Kier1>
21.2404

>  <Kier2>
9.42769

>  <Kier3>
4.54179

>  <KierA1>
14.4569

>  <KierA2>
6.31723

>  <KierA3>
3.00956

>  <KierFlex>
3.26171

>  <logS>
-4.32457

>  <MNDO_dipole>
6.42245

>  <MNDO_E>
-115418

>  <MNDO_Eele>
-824604

>  <MNDO_HF>
-60.589

>  <MNDO_HOMO>
-8.83554

>  <MNDO_IP>
8.83554

>  <MNDO_LUMO>
-0.58216

>  <apol>
55.2253

>  <bpol>
28.3747

>  <mr>
10.353

>  <dipole>
1.4936

>  <dipoleX>
0.597909

>  <dipoleY>
-0.808759

>  <dipoleZ>
1.1042

>  <pmi>
8605.44

>  <pmiX>
7155.14

>  <pmiY>
993.794

>  <pmiZ>
456.507

>  <rgyr>
4.76259

>  <a_acc>
3

>  <a_acid>
0

>  <a_base>
0

>  <a_don>
1

>  <a_hyd>
19

>  <vsa_acc>
40.7008

>  <vsa_acid>
0

>  <vsa_base>
0

>  <vsa_don>
5.68258

>  <vsa_hyd>
262.22

>  <vsa_other>
34.3576

>  <vsa_pol>
46.3833

>  <PM3_dipole>
6.27986

>  <PM3_E>
-105442

>  <PM3_Eele>
-820596

>  <PM3_HF>
-76.4014

>  <PM3_HOMO>
-8.82988

>  <PM3_IP>
8.82988

>  <PM3_LUMO>
-0.55845

>  <SlogP>
2.4743

>  <SlogP_VSA0>
0

>  <SlogP_VSA1>
22.4538

>  <SlogP_VSA2>
49.7688

>  <SlogP_VSA3>
73.7583

>  <SlogP_VSA4>
54.0956

>  <SlogP_VSA5>
0

>  <SlogP_VSA6>
0

>  <SlogP_VSA7>
163.077

>  <SlogP_VSA8>
0

>  <SlogP_VSA9>
14.9601

>  <SMR>
10.1513

>  <SMR_VSA0>
71.5866

>  <SMR_VSA1>
21.2087

>  <SMR_VSA2>
25.9065

>  <SMR_VSA3>
6.37115

>  <SMR_VSA4>
4.7171

>  <SMR_VSA5>
158.36

>  <SMR_VSA6>
89.9635

>  <SMR_VSA7>
0

>  <ASA>
621.893

>  <ASA+>
251.909

>  <ASA->
265.116

>  <ASA_H>
466.953

>  <ASA_P>
154.94

>  <CASA+>
1249.21

>  <CASA->
1314.97

>  <DASA>
13.2073

>  <DCASA>
65.7599

>  <FASA+>
0.405067

>  <FASA->
0.426304

>  <FASA_H>
0.750857

>  <FASA_P>
0.249143

>  <FCASA+>
2.00873

>  <FCASA->
2.11447

>  <VSA>
380.116

>  <TPSA>
73.48

>  <density>
0.776193

>  <vdw_area>
358.135

>  <vdw_vol>
488.784

>  <vsurf_A>
1.7806

>  <vsurf_CP>
0.13384

>  <vsurf_CW1>
2.67413

>  <vsurf_CW2>
2.13667

>  <vsurf_CW3>
1.41684

>  <vsurf_CW4>
0.637426

>  <vsurf_CW5>
0.206378

>  <vsurf_CW6>
0.0624244

>  <vsurf_CW7>
0.00516019

>  <vsurf_CW8>
0

>  <vsurf_D1>
836.125

>  <vsurf_D2>
477.625

>  <vsurf_D3>
357.25

>  <vsurf_D4>
304.25

>  <vsurf_D5>
257.625

>  <vsurf_D6>
202

>  <vsurf_D7>
104.875

>  <vsurf_D8>
56.5

>  <vsurf_DD12>
5.40833

>  <vsurf_DD13>
5.38516

>  <vsurf_DD23>
0.5

>  <vsurf_DW12>
5.52268

>  <vsurf_DW13>
0.707107

>  <vsurf_DW23>
5.04975

>  <vsurf_EDmin1>
-2.63734

>  <vsurf_EDmin2>
-2.6195

>  <vsurf_EDmin3>
-2.59016

>  <vsurf_EWmin1>
-5.5457

>  <vsurf_EWmin2>
-5.42257

>  <vsurf_EWmin3>
-5.37432

>  <vsurf_G>
1.34596

>  <vsurf_HB1>
303

>  <vsurf_HB2>
378.875

>  <vsurf_HB3>
346.25

>  <vsurf_HB4>
114.5

>  <vsurf_HB5>
30.5

>  <vsurf_HB6>
7.75

>  <vsurf_HB7>
1.125

>  <vsurf_HB8>
0

>  <vsurf_HL1>
0.103219

>  <vsurf_HL2>
0.0304026

>  <vsurf_ID1>
0.851226

>  <vsurf_ID2>
1.0279

>  <vsurf_ID3>
1.03006

>  <vsurf_ID4>
1.08377

>  <vsurf_ID5>
1.20661

>  <vsurf_ID6>
1.46555

>  <vsurf_ID7>
2.26468

>  <vsurf_ID8>
2.63015

>  <vsurf_IW1>
0.243766

>  <vsurf_IW2>
0.318052

>  <vsurf_IW3>
0.812066

>  <vsurf_IW4>
1.01448

>  <vsurf_IW5>
0.83615

>  <vsurf_IW6>
1.65333

>  <vsurf_IW7>
2.67345

>  <vsurf_IW8>
0

>  <vsurf_R>
1.43498

>  <vsurf_S>
567.863

>  <vsurf_V>
814.875

>  <vsurf_W1>
1365.25

>  <vsurf_W2>
821.625

>  <vsurf_W3>
419.5

>  <vsurf_W4>
131.375

>  <vsurf_W5>
36.875

>  <vsurf_W6>
9.25

>  <vsurf_W7>
1.125

>  <vsurf_W8>
0

>  <vsurf_Wp1>
1062.25

>  <vsurf_Wp2>
442.75

>  <vsurf_Wp3>
73.25

>  <vsurf_Wp4>
16.875

>  <vsurf_Wp5>
6.375

>  <vsurf_Wp6>
1.5

>  <vsurf_Wp7>
0

>  <vsurf_Wp8>
0

>  <dens>
1.09295

>  <glob>
0.0586037

>  <std_dim1>
4.71815

>  <std_dim2>
1.34776

>  <std_dim3>
1.14218

>  <vol>
347.125

>  <logP(o/w)>
2.234

$$$$
D6.cdx
  MOE2008           3D

 46 49  0  0  0  0  0  0  0  0999 V2000
   -7.7360   14.6570   -1.1410 C   0  0  0  0  0  0  0  0  0  0  0  0
   -8.5140   15.4090   -1.0280 H   0  0  0  0  0  0  0  0  0  0  0  0
   -7.9130   13.6070   -2.0380 C   0  0  0  0  0  0  0  0  0  0  0  0
   -8.8300   13.5480   -2.6190 H   0  0  0  0  0  0  0  0  0  0  0  0
   -6.9320   12.6250   -2.2010 C   0  0  0  0  0  0  0  0  0  0  0  0
   -7.0780   11.8070   -2.8990 H   0  0  0  0  0  0  0  0  0  0  0  0
   -5.7670   12.7370   -1.4330 C   0  0  0  0  0  0  0  0  0  0  0  0
   -5.5560   13.7770   -0.5240 C   0  0  0  0  0  0  0  0  0  0  0  0
   -6.5650   14.7540   -0.3800 C   0  0  0  0  0  0  0  0  0  0  0  0
   -6.4390   15.5770    0.3180 H   0  0  0  0  0  0  0  0  0  0  0  0
   -4.6590   11.9260   -1.3850 N   0  0  0  0  0  0  0  0  0  0  0  0
   -4.5400   11.0860   -1.9360 H   0  0  0  0  0  0  0  0  0  0  0  0
   -3.7490   12.4200   -0.4880 C   0  0  0  0  0  0  0  0  0  0  0  0
   -2.8140   11.8980   -0.3230 H   0  0  0  0  0  0  0  0  0  0  0  0
   -4.2710   13.5690    0.0780 C   0  0  0  0  0  0  0  0  0  0  0  0
   -3.6240   14.3880    1.0950 C   0  0  0  0  0  0  0  0  0  0  0  0
   -2.2390   14.0240    1.5980 C   0  0  0  0  0  0  0  0  0  0  0  0
   -1.1680   14.7800    1.1220 N   0  0  0  0  0  0  0  0  0  0  0  0
    0.1860   14.4320    1.5560 C   0  0  0  0  0  0  0  0  0  0  0  0
    0.3540   14.9570    2.5040 H   0  0  0  0  0  0  0  0  0  0  0  0
    0.2480   13.3580    1.7600 H   0  0  0  0  0  0  0  0  0  0  0  0
    1.2540   14.8390    0.5360 C   0  0  0  0  0  0  0  0  0  0  0  0
    1.1160   14.2680   -0.3890 H   0  0  0  0  0  0  0  0  0  0  0  0
    2.2480   14.6070    0.9290 H   0  0  0  0  0  0  0  0  0  0  0  0
    1.1710   16.2620    0.1730 N   0  0  0  0  0  0  0  0  0  0  0  0
   -0.1340   16.9070    0.3290 C   0  0  0  0  0  0  0  0  0  0  0  0
   -0.1370   17.3680    1.3250 H   0  0  0  0  0  0  0  0  0  0  0  0
   -0.2430   17.7120   -0.4060 H   0  0  0  0  0  0  0  0  0  0  0  0
   -1.3000   15.9210    0.2060 C   0  0  0  0  0  0  0  0  0  0  0  0
   -1.3340   15.5030   -0.8080 H   0  0  0  0  0  0  0  0  0  0  0  0
   -2.2430   16.4450    0.3790 H   0  0  0  0  0  0  0  0  0  0  0  0
    2.2350   17.0280   -0.2980 C   0  0  0  0  0  0  0  0  0  0  0  0
    3.5240   16.3540   -0.5440 C   0  0  0  0  0  0  0  0  0  0  0  0
    3.7530   15.6080   -1.7040 C   0  0  0  0  0  0  0  0  0  0  0  0
    4.9960   15.0000   -1.8940 C   0  0  0  0  0  0  0  0  0  0  0  0
    5.1950   14.4140   -2.7880 H   0  0  0  0  0  0  0  0  0  0  0  0
    6.0030   15.1490   -0.9360 C   0  0  0  0  0  0  0  0  0  0  0  0
    6.9710   14.6770   -1.0890 H   0  0  0  0  0  0  0  0  0  0  0  0
    5.7760   15.9110    0.2110 C   0  0  0  0  0  0  0  0  0  0  0  0
    6.5660   16.0330    0.9470 H   0  0  0  0  0  0  0  0  0  0  0  0
    4.5370   16.5210    0.4080 C   0  0  0  0  0  0  0  0  0  0  0  0
    4.3650   17.1220    1.2980 H   0  0  0  0  0  0  0  0  0  0  0  0
   -4.1470   15.3840    1.5890 O   0  0  0  0  0  0  0  0  0  0  0  0
   -2.1490   13.0830    2.3790 O   0  0  0  0  0  0  0  0  0  0  0  0
    2.1850   18.2350   -0.5100 O   0  0  0  0  0  0  0  0  0  0  0  0
    2.5540   15.4190   -2.9310 Cl  0  0  0  0  0  0  0  0  0  0  0  0
  1  2  1  0  0  0  0
  1  3  1  0  0  0  0
  1  9  2  0  0  0  0
  3  4  1  0  0  0  0
  3  5  2  0  0  0  0
  5  6  1  0  0  0  0
  5  7  1  0  0  0  0
  7  8  2  0  0  0  0
  7 11  1  0  0  0  0
  8  9  1  0  0  0  0
  8 15  1  0  0  0  0
  9 10  1  0  0  0  0
 11 12  1  0  0  0  0
 11 13  1  0  0  0  0
 13 14  1  0  0  0  0
 13 15  2  0  0  0  0
 15 16  1  0  0  0  0
 16 17  1  0  0  0  0
 16 43  2  0  0  0  0
 17 18  1  0  0  0  0
 17 44  2  0  0  0  0
 18 19  1  0  0  0  0
 18 29  1  0  0  0  0
 19 20  1  0  0  0  0
 19 21  1  0  0  0  0
 19 22  1  0  0  0  0
 22 23  1  0  0  0  0
 22 24  1  0  0  0  0
 22 25  1  0  0  0  0
 25 26  1  0  0  0  0
 25 32  1  0  0  0  0
 26 27  1  0  0  0  0
 26 28  1  0  0  0  0
 26 29  1  0  0  0  0
 29 30  1  0  0  0  0
 29 31  1  0  0  0  0
 32 33  1  0  0  0  0
 32 45  2  0  0  0  0
 33 34  1  0  0  0  0
 33 41  2  0  0  0  0
 34 35  2  0  0  0  0
 34 46  1  0  0  0  0
 35 36  1  0  0  0  0
 35 37  1  0  0  0  0
 37 38  1  0  0  0  0
 37 39  2  0  0  0  0
 39 40  1  0  0  0  0
 39 41  1  0  0  0  0
 41 42  1  0  0  0  0
M  END
>  <Activity>
4.4559

>  <AM1_dipole>
5.3052

>  <AM1_E>
-112769

>  <AM1_Eele>
-834124

>  <AM1_HF>
-2.73502

>  <AM1_HOMO>
-8.81957

>  <AM1_IP>
8.81957

>  <AM1_LUMO>
-0.45591

>  <diameter>
15

>  <petitjean>
0.466667

>  <petitjeanSC>
0.875

>  <radius>
8

>  <VDistEq>
3.66783

>  <VDistMa>
9.29216

>  <weinerPath>
2222

>  <weinerPol>
47

>  <BCUT_PEOE_0>
-2.71164

>  <BCUT_PEOE_1>
-0.639429

>  <BCUT_PEOE_2>
0.655427

>  <BCUT_PEOE_3>
2.65058

>  <BCUT_SLOGP_0>
-2.85993

>  <BCUT_SLOGP_1>
-0.459128

>  <BCUT_SLOGP_2>
0.719958

>  <BCUT_SLOGP_3>
2.50482

>  <BCUT_SMR_0>
-2.43196

>  <BCUT_SMR_1>
-0.432197

>  <BCUT_SMR_2>
0.826259

>  <BCUT_SMR_3>
2.92047

>  <GCUT_PEOE_0>
-0.860602

>  <GCUT_PEOE_1>
-0.403712

>  <GCUT_PEOE_2>
0.0655174

>  <GCUT_PEOE_3>
2.64977

>  <GCUT_SLOGP_0>
-0.976482

>  <GCUT_SLOGP_1>
-0.335826

>  <GCUT_SLOGP_2>
0.142683

>  <GCUT_SLOGP_3>
2.63811

>  <GCUT_SMR_0>
-0.508852

>  <GCUT_SMR_1>
-0.184497

>  <GCUT_SMR_2>
0.241829

>  <GCUT_SMR_3>
2.92417

>  <a_aro>
15

>  <a_count>
46

>  <a_IC>
77.2768

>  <a_ICM>
1.67993

>  <a_nH>
18

>  <b_1rotN>
5

>  <b_1rotR>
0.16129

>  <b_ar>
16

>  <b_count>
49

>  <b_double>
3

>  <b_rotN>
5

>  <b_rotR>
0.16129

>  <b_single>
30

>  <b_triple>
0

>  <chi0v>
15.7776

>  <chi0v_C>
12.0246

>  <chi1v>
9.37349

>  <chi1v_C>
5.94338

>  <chiral>
0

>  <chiral_u>
0

>  <nmol>
1

>  <reactive>
0

>  <rings>
4

>  <Weight>
395.846

>  <a_heavy>
28

>  <a_nB>
0

>  <a_nBr>
0

>  <a_nC>
21

>  <a_nCl>
1

>  <a_nF>
0

>  <a_nI>
0

>  <a_nN>
3

>  <a_nO>
3

>  <a_nP>
0

>  <a_nS>
0

>  <b_heavy>
31

>  <chi0>
19.673

>  <chi0_C>
13.8112

>  <chi1>
13.5586

>  <chi1_C>
8.04124

>  <FCharge>
0

>  <VAdjEq>
0.398935

>  <VAdjMa>
5.9542

>  <zagreb>
150

>  <balabanJ>
1.28292

>  <PEOE_PC+>
2.34493

>  <PEOE_PC->
-2.34493

>  <PEOE_RPC+>
0.125846

>  <PEOE_RPC->
0.153499

>  <PEOE_VSA+0>
78.4233

>  <PEOE_VSA+1>
81.4484

>  <PEOE_VSA+2>
0

>  <PEOE_VSA+3>
8.61901

>  <PEOE_VSA+4>
0

>  <PEOE_VSA+5>
34.3576

>  <PEOE_VSA+6>
0

>  <PEOE_VSA-0>
36.7647

>  <PEOE_VSA-1>
90.8565

>  <PEOE_VSA-2>
0

>  <PEOE_VSA-3>
0

>  <PEOE_VSA-4>
0

>  <PEOE_VSA-5>
40.7008

>  <PEOE_VSA-6>
0.136891

>  <PEOE_VSA_FHYD>
0.797485

>  <PEOE_VSA_FNEG>
0.453691

>  <PEOE_VSA_FPNEG>
0.109983

>  <PEOE_VSA_FPOL>
0.202515

>  <PEOE_VSA_FPOS>
0.546309

>  <PEOE_VSA_FPPOS>
0.0925314

>  <PEOE_VSA_HYD>
296.112

>  <PEOE_VSA_NEG>
168.459

>  <PEOE_VSA_PNEG>
40.8377

>  <PEOE_VSA_POL>
75.1952

>  <PEOE_VSA_POS>
202.848

>  <PEOE_VSA_PPOS>
34.3576

>  <PC+>
4.946

>  <PC->
-4.947

>  <Q_PC+>
4.946

>  <Q_PC->
-4.947

>  <Q_RPC+>
0.132632

>  <Q_RPC->
0.133414

>  <Q_VSA_FHYD>
0.587424

>  <Q_VSA_FNEG>
0.522414

>  <Q_VSA_FPNEG>
0.154715

>  <Q_VSA_FPOL>
0.412576

>  <Q_VSA_FPOS>
0.477586

>  <Q_VSA_FPPOS>
0.257862

>  <Q_VSA_HYD>
218.115

>  <Q_VSA_NEG>
193.976

>  <Q_VSA_PNEG>
57.4467

>  <Q_VSA_POL>
153.193

>  <Q_VSA_POS>
177.331

>  <Q_VSA_PPOS>
95.7459

>  <RPC+>
0.132632

>  <RPC->
0.133414

>  <lip_acc>
6

>  <lip_don>
1

>  <lip_druglike>
1

>  <lip_violation>
0

>  <opr_brigid>
22

>  <opr_leadlike>
1

>  <opr_nring>
4

>  <opr_nrot>
5

>  <opr_violation>
0

>  <E>
92.5958

>  <E_ang>
7.28164

>  <E_ele>
28.3519

>  <E_nb>
73.5705

>  <E_oop>
0.0173649

>  <E_sol>
-19.0844

>  <E_stb>
0.355792

>  <E_str>
5.76757

>  <E_strain>
0.00410655

>  <E_tor>
5.60293

>  <E_vdw>
45.2186

>  <E_rele>
0

>  <E_rnb>
-2.84217e-014

>  <E_rsol>
-2.84217e-014

>  <E_rvdw>
0

>  <Kier1>
21.2404

>  <Kier2>
9.42769

>  <Kier3>
4.54179

>  <KierA1>
15.4057

>  <KierA2>
6.75023

>  <KierA3>
3.22214

>  <KierFlex>
3.71401

>  <logS>
-4.76388

>  <MNDO_dipole>
6.03966

>  <MNDO_E>
-112539

>  <MNDO_Eele>
-821566

>  <MNDO_HF>
-20.7677

>  <MNDO_HOMO>
-8.82423

>  <MNDO_IP>
8.82423

>  <MNDO_LUMO>
-0.62414

>  <apol>
56.8483

>  <bpol>
27.5917

>  <mr>
10.7841

>  <dipole>
1.51591

>  <dipoleX>
0.87039

>  <dipoleY>
-1.11437

>  <dipoleZ>
-0.546426

>  <pmi>
8595.8

>  <pmiX>
6875.67

>  <pmiY>
912.397

>  <pmiZ>
807.733

>  <rgyr>
4.65994

>  <a_acc>
3

>  <a_acid>
0

>  <a_base>
0

>  <a_don>
1

>  <a_hyd>
19

>  <vsa_acc>
40.7008

>  <vsa_acid>
0

>  <vsa_base>
0

>  <vsa_don>
5.68258

>  <vsa_hyd>
275.392

>  <vsa_other>
34.3576

>  <vsa_pol>
46.3833

>  <PM3_dipole>
6.06139

>  <PM3_E>
-102592

>  <PM3_Eele>
-814097

>  <PM3_HF>
-36.6777

>  <PM3_HOMO>
-8.8237

>  <PM3_IP>
8.8237

>  <PM3_LUMO>
-0.54798

>  <SlogP>
2.9886

>  <SlogP_VSA0>
0

>  <SlogP_VSA1>
22.4538

>  <SlogP_VSA2>
40.6477

>  <SlogP_VSA3>
73.7583

>  <SlogP_VSA4>
54.0956

>  <SlogP_VSA5>
0

>  <SlogP_VSA6>
3.50061

>  <SlogP_VSA7>
163.077

>  <SlogP_VSA8>
0

>  <SlogP_VSA9>
39.1486

>  <SMR>
10.6565

>  <SMR_VSA0>
71.5866

>  <SMR_VSA1>
6.24863

>  <SMR_VSA2>
16.7855

>  <SMR_VSA3>
9.87176

>  <SMR_VSA4>
4.7171

>  <SMR_VSA5>
158.36

>  <SMR_VSA6>
89.9635

>  <SMR_VSA7>
39.1486

>  <ASA>
636.365

>  <ASA+>
240.67

>  <ASA->
291.843

>  <ASA_H>
485.582

>  <ASA_P>
150.783

>  <CASA+>
1190.35

>  <CASA->
1443.75

>  <DASA>
51.173

>  <DCASA>
253.393

>  <FASA+>
0.378195

>  <FASA->
0.458609

>  <FASA_H>
0.763055

>  <FASA_P>
0.236945

>  <FCASA+>
1.87055

>  <FCASA->
2.26874

>  <VSA>
393.047

>  <TPSA>
73.48

>  <density>
0.78917

>  <vdw_area>
371.307

>  <vdw_vol>
501.598

>  <vsurf_A>
2.85573

>  <vsurf_CP>
0.153951

>  <vsurf_CW1>
2.64566

>  <vsurf_CW2>
2.08561

>  <vsurf_CW3>
1.26058

>  <vsurf_CW4>
0.526349

>  <vsurf_CW5>
0.21038

>  <vsurf_CW6>
0.0706477

>  <vsurf_CW7>
0.00552429

>  <vsurf_CW8>
0

>  <vsurf_D1>
930.375

>  <vsurf_D2>
548.25

>  <vsurf_D3>
413

>  <vsurf_D4>
354

>  <vsurf_D5>
303.5

>  <vsurf_D6>
251.75

>  <vsurf_D7>
140.875

>  <vsurf_D8>
75.5

>  <vsurf_DD12>
0.707107

>  <vsurf_DD13>
0.5

>  <vsurf_DD23>
0.866025

>  <vsurf_DW12>
0.5

>  <vsurf_DW13>
5.83095

>  <vsurf_DW23>
5.59017

>  <vsurf_EDmin1>
-2.73352

>  <vsurf_EDmin2>
-2.72225

>  <vsurf_EDmin3>
-2.71687

>  <vsurf_EWmin1>
-5.42017

>  <vsurf_EWmin2>
-5.29528

>  <vsurf_EWmin3>
-5.21505

>  <vsurf_G>
1.34664

>  <vsurf_HB1>
296.875

>  <vsurf_HB2>
333.75

>  <vsurf_HB3>
294.75

>  <vsurf_HB4>
102.625

>  <vsurf_HB5>
32.75

>  <vsurf_HB6>
9

>  <vsurf_HB7>
1.25

>  <vsurf_HB8>
0

>  <vsurf_HL1>
0.0950363

>  <vsurf_HL2>
0.0300141

>  <vsurf_ID1>
0.860643

>  <vsurf_ID2>
0.885748

>  <vsurf_ID3>
0.901807

>  <vsurf_ID4>
0.983837

>  <vsurf_ID5>
1.11369

>  <vsurf_ID6>
1.25514

>  <vsurf_ID7>
1.21365

>  <vsurf_ID8>
0.968611

>  <vsurf_IW1>
0.259828

>  <vsurf_IW2>
0.798298

>  <vsurf_IW3>
1.46346

>  <vsurf_IW4>
1.98853

>  <vsurf_IW5>
1.95423

>  <vsurf_IW6>
2.49843

>  <vsurf_IW7>
4.50384

>  <vsurf_IW8>
0

>  <vsurf_R>
1.4513

>  <vsurf_S>
581.722

>  <vsurf_V>
844.25

>  <vsurf_W1>
1388.25

>  <vsurf_W2>
793.125

>  <vsurf_W3>
378.5

>  <vsurf_W4>
119.375

>  <vsurf_W5>
39.25

>  <vsurf_W6>
10.625

>  <vsurf_W7>
1.25

>  <vsurf_W8>
0

>  <vsurf_Wp1>
1091.38

>  <vsurf_Wp2>
459.375

>  <vsurf_Wp3>
83.75

>  <vsurf_Wp4>
16.75

>  <vsurf_Wp5>
6.5

>  <vsurf_Wp6>
1.625

>  <vsurf_Wp7>
0

>  <vsurf_Wp8>
0

>  <dens>
1.09615

>  <glob>
0.0716357

>  <std_dim1>
4.55173

>  <std_dim2>
1.52363

>  <std_dim3>
1.21826

>  <vol>
361.125

>  <logP(o/w)>
2.673

$$$$
D6.cdx
  MOE2008           3D

 47 50  0  0  0  0  0  0  0  0999 V2000
   -7.5430   10.2590    2.1900 C   0  0  0  0  0  0  0  0  0  0  0  0
   -8.3100   11.0110    2.3590 H   0  0  0  0  0  0  0  0  0  0  0  0
   -7.6590    9.0050    2.7830 C   0  0  0  0  0  0  0  0  0  0  0  0
   -8.5180    8.7870    3.4120 H   0  0  0  0  0  0  0  0  0  0  0  0
   -6.6890    8.0190    2.5810 C   0  0  0  0  0  0  0  0  0  0  0  0
   -6.7860    7.0420    3.0430 H   0  0  0  0  0  0  0  0  0  0  0  0
   -5.5990    8.3400    1.7630 C   0  0  0  0  0  0  0  0  0  0  0  0
   -5.4500    9.5870    1.1530 C   0  0  0  0  0  0  0  0  0  0  0  0
   -6.4460   10.5630    1.3750 C   0  0  0  0  0  0  0  0  0  0  0  0
   -6.3690   11.5460    0.9160 H   0  0  0  0  0  0  0  0  0  0  0  0
   -4.5160    7.5770    1.3950 N   0  0  0  0  0  0  0  0  0  0  0  0
   -4.3600    6.6220    1.6890 H   0  0  0  0  0  0  0  0  0  0  0  0
   -3.6860    8.2960    0.5770 C   0  0  0  0  0  0  0  0  0  0  0  0
   -2.7830    7.8420    0.1890 H   0  0  0  0  0  0  0  0  0  0  0  0
   -4.2320    9.5550    0.3970 C   0  0  0  0  0  0  0  0  0  0  0  0
   -3.6530   10.6230   -0.4080 C   0  0  0  0  0  0  0  0  0  0  0  0
   -2.3470   10.3880   -1.1420 C   0  0  0  0  0  0  0  0  0  0  0  0
   -1.1820   10.8490   -0.5320 N   0  0  0  0  0  0  0  0  0  0  0  0
    0.1140   10.6070   -1.1730 C   0  0  0  0  0  0  0  0  0  0  0  0
    0.6400    9.8750   -0.5500 H   0  0  0  0  0  0  0  0  0  0  0  0
   -0.0160   10.1660   -2.1660 H   0  0  0  0  0  0  0  0  0  0  0  0
    0.9360   11.8970   -1.2780 C   0  0  0  0  0  0  0  0  0  0  0  0
    0.4470   12.5940   -1.9690 H   0  0  0  0  0  0  0  0  0  0  0  0
    1.9260   11.6820   -1.6850 H   0  0  0  0  0  0  0  0  0  0  0  0
    1.0070   12.5820    0.0240 N   0  0  0  0  0  0  0  0  0  0  0  0
   -0.2980   12.8530    0.6360 C   0  0  0  0  0  0  0  0  0  0  0  0
   -0.1850   13.3120    1.6230 H   0  0  0  0  0  0  0  0  0  0  0  0
   -0.8100   13.5750   -0.0110 H   0  0  0  0  0  0  0  0  0  0  0  0
   -1.1270   11.5670    0.7520 C   0  0  0  0  0  0  0  0  0  0  0  0
   -2.1240   11.8030    1.1290 H   0  0  0  0  0  0  0  0  0  0  0  0
   -0.6560   10.8840    1.4690 H   0  0  0  0  0  0  0  0  0  0  0  0
    2.1650   12.9930    0.6740 C   0  0  0  0  0  0  0  0  0  0  0  0
    3.4670   12.6040    0.1010 C   0  0  0  0  0  0  0  0  0  0  0  0
    3.9370   11.2890    0.1870 C   0  0  0  0  0  0  0  0  0  0  0  0
    5.1710   10.9590   -0.3680 C   0  0  0  0  0  0  0  0  0  0  0  0
    5.5380    9.9380   -0.3110 H   0  0  0  0  0  0  0  0  0  0  0  0
    5.9430   11.9450   -0.9880 C   0  0  0  0  0  0  0  0  0  0  0  0
    6.9090   11.6860   -1.4140 H   0  0  0  0  0  0  0  0  0  0  0  0
    5.4840   13.2620   -1.0510 C   0  0  0  0  0  0  0  0  0  0  0  0
    6.0940   14.0270   -1.5250 H   0  0  0  0  0  0  0  0  0  0  0  0
    4.2450   13.5970   -0.5030 C   0  0  0  0  0  0  0  0  0  0  0  0
    3.8920   14.6250   -0.5480 H   0  0  0  0  0  0  0  0  0  0  0  0
   -4.1620   11.7350   -0.5250 O   0  0  0  0  0  0  0  0  0  0  0  0
   -2.4020    9.7930   -2.2130 O   0  0  0  0  0  0  0  0  0  0  0  0
    2.1880   13.6260    1.7240 O   0  0  0  0  0  0  0  0  0  0  0  0
    3.2440   10.2790    0.7940 O   0  0  0  0  0  0  0  0  0  0  0  0
    2.5060   10.6510    1.3060 H   0  0  0  0  0  0  0  0  0  0  0  0
  1  2  1  0  0  0  0
  1  3  1  0  0  0  0
  1  9  2  0  0  0  0
  3  4  1  0  0  0  0
  3  5  2  0  0  0  0
  5  6  1  0  0  0  0
  5  7  1  0  0  0  0
  7  8  2  0  0  0  0
  7 11  1  0  0  0  0
  8  9  1  0  0  0  0
  8 15  1  0  0  0  0
  9 10  1  0  0  0  0
 11 12  1  0  0  0  0
 11 13  1  0  0  0  0
 13 14  1  0  0  0  0
 13 15  2  0  0  0  0
 15 16  1  0  0  0  0
 16 17  1  0  0  0  0
 16 43  2  0  0  0  0
 17 18  1  0  0  0  0
 17 44  2  0  0  0  0
 18 19  1  0  0  0  0
 18 29  1  0  0  0  0
 19 20  1  0  0  0  0
 19 21  1  0  0  0  0
 19 22  1  0  0  0  0
 22 23  1  0  0  0  0
 22 24  1  0  0  0  0
 22 25  1  0  0  0  0
 25 26  1  0  0  0  0
 25 32  1  0  0  0  0
 26 27  1  0  0  0  0
 26 28  1  0  0  0  0
 26 29  1  0  0  0  0
 29 30  1  0  0  0  0
 29 31  1  0  0  0  0
 32 33  1  0  0  0  0
 32 45  2  0  0  0  0
 33 34  1  0  0  0  0
 33 41  2  0  0  0  0
 34 35  2  0  0  0  0
 34 46  1  0  0  0  0
 35 36  1  0  0  0  0
 35 37  1  0  0  0  0
 37 38  1  0  0  0  0
 37 39  2  0  0  0  0
 39 40  1  0  0  0  0
 39 41  1  0  0  0  0
 41 42  1  0  0  0  0
 46 47  1  0  0  0  0
M  END
>  <Activity>
5.4377

>  <AM1_dipole>
3.61065

>  <AM1_E>
-111862

>  <AM1_Eele>
-832228

>  <AM1_HF>
-26.525

>  <AM1_HOMO>
-8.90018

>  <AM1_IP>
8.90018

>  <AM1_LUMO>
-0.50193

>  <diameter>
15

>  <petitjean>
0.466667

>  <petitjeanSC>
0.875

>  <radius>
8

>  <VDistEq>
3.66783

>  <VDistMa>
9.29216

>  <weinerPath>
2222

>  <weinerPol>
47

>  <BCUT_PEOE_0>
-2.71162

>  <BCUT_PEOE_1>
-0.60445

>  <BCUT_PEOE_2>
0.634023

>  <BCUT_PEOE_3>
2.65082

>  <BCUT_SLOGP_0>
-2.85986

>  <BCUT_SLOGP_1>
-0.536456

>  <BCUT_SLOGP_2>
0.705925

>  <BCUT_SLOGP_3>
2.50646

>  <BCUT_SMR_0>
-2.43205

>  <BCUT_SMR_1>
-0.42163

>  <BCUT_SMR_2>
0.793161

>  <BCUT_SMR_3>
2.92048

>  <GCUT_PEOE_0>
-0.860602

>  <GCUT_PEOE_1>
-0.444373

>  <GCUT_PEOE_2>
0.0820579

>  <GCUT_PEOE_3>
2.65897

>  <GCUT_SLOGP_0>
-0.976485

>  <GCUT_SLOGP_1>
-0.341541

>  <GCUT_SLOGP_2>
0.14136

>  <GCUT_SLOGP_3>
2.6465

>  <GCUT_SMR_0>
-0.508962

>  <GCUT_SMR_1>
-0.223224

>  <GCUT_SMR_2>
0.216333

>  <GCUT_SMR_3>
2.92961

>  <a_aro>
15

>  <a_count>
47

>  <a_IC>
75.3615

>  <a_ICM>
1.60344

>  <a_nH>
19

>  <b_1rotN>
5

>  <b_1rotR>
0.16129

>  <b_ar>
16

>  <b_count>
50

>  <b_double>
3

>  <b_rotN>
5

>  <b_rotR>
0.16129

>  <b_single>
31

>  <b_triple>
0

>  <chi0v>
15.091

>  <chi0v_C>
12.0246

>  <chi1v>
9.03015

>  <chi1v_C>
5.94338

>  <chiral>
0

>  <chiral_u>
0

>  <nmol>
1

>  <reactive>
0

>  <rings>
4

>  <Weight>
377.4

>  <a_heavy>
28

>  <a_nB>
0

>  <a_nBr>
0

>  <a_nC>
21

>  <a_nCl>
0

>  <a_nF>
0

>  <a_nI>
0

>  <a_nN>
3

>  <a_nO>
4

>  <a_nP>
0

>  <a_nS>
0

>  <b_heavy>
31

>  <chi0>
19.673

>  <chi0_C>
13.8112

>  <chi1>
13.5586

>  <chi1_C>
8.04124

>  <FCharge>
0

>  <VAdjEq>
0.398935

>  <VAdjMa>
5.9542

>  <zagreb>
150

>  <balabanJ>
1.28292

>  <PEOE_PC+>
2.60751

>  <PEOE_PC->
-2.60751

>  <PEOE_RPC+>
0.113173

>  <PEOE_RPC->
0.138042

>  <PEOE_VSA+0>
78.4233

>  <PEOE_VSA+1>
85.3872

>  <PEOE_VSA+2>
0

>  <PEOE_VSA+3>
8.61901

>  <PEOE_VSA+4>
10.3242

>  <PEOE_VSA+5>
34.3576

>  <PEOE_VSA+6>
0

>  <PEOE_VSA-0>
36.7647

>  <PEOE_VSA-1>
61.2745

>  <PEOE_VSA-2>
0

>  <PEOE_VSA-3>
0

>  <PEOE_VSA-4>
0

>  <PEOE_VSA-5>
40.7008

>  <PEOE_VSA-6>
7.90443

>  <PEOE_VSA_FHYD>
0.743545

>  <PEOE_VSA_FNEG>
0.40314

>  <PEOE_VSA_FPNEG>
0.13362

>  <PEOE_VSA_FPOL>
0.256455

>  <PEOE_VSA_FPOS>
0.59686

>  <PEOE_VSA_FPPOS>
0.122835

>  <PEOE_VSA_HYD>
270.469

>  <PEOE_VSA_NEG>
146.644

>  <PEOE_VSA_PNEG>
48.6052

>  <PEOE_VSA_POL>
93.2869

>  <PEOE_VSA_POS>
217.111

>  <PEOE_VSA_PPOS>
44.6818

>  <PC+>
5.301

>  <PC->
-5.302

>  <Q_PC+>
5.301

>  <Q_PC->
-5.302

>  <Q_RPC+>
0.12375

>  <Q_RPC->
0.124481

>  <Q_VSA_FHYD>
0.529123

>  <Q_VSA_FNEG>
0.473289

>  <Q_VSA_FPNEG>
0.17928

>  <Q_VSA_FPOL>
0.470877

>  <Q_VSA_FPOS>
0.526711

>  <Q_VSA_FPPOS>
0.291597

>  <Q_VSA_HYD>
192.471

>  <Q_VSA_NEG>
172.162

>  <Q_VSA_PNEG>
65.2142

>  <Q_VSA_POL>
171.284

>  <Q_VSA_POS>
191.594

>  <Q_VSA_PPOS>
106.07

>  <RPC+>
0.12375

>  <RPC->
0.124481

>  <lip_acc>
7

>  <lip_don>
2

>  <lip_druglike>
1

>  <lip_violation>
0

>  <opr_brigid>
22

>  <opr_leadlike>
1

>  <opr_nring>
4

>  <opr_nrot>
5

>  <opr_violation>
0

>  <E>
93.4455

>  <E_ang>
9.06695

>  <E_ele>
29.6651

>  <E_nb>
75.1906

>  <E_oop>
0.0689951

>  <E_sol>
-21.997

>  <E_stb>
0.197898

>  <E_str>
5.86473

>  <E_strain>
0.00373211

>  <E_tor>
3.05633

>  <E_vdw>
45.5255

>  <E_rele>
0

>  <E_rnb>
0

>  <E_rsol>
0

>  <E_rvdw>
0

>  <Kier1>
21.2404

>  <Kier2>
9.42769

>  <Kier3>
4.54179

>  <KierA1>
14.5633

>  <KierA2>
6.36575

>  <KierA3>
3.03337

>  <KierFlex>
3.31095

>  <logS>
-3.66764

>  <MNDO_dipole>
4.06923

>  <MNDO_E>
-112125

>  <MNDO_Eele>
-824615

>  <MNDO_HF>
-62.4233

>  <MNDO_HOMO>
-8.86078

>  <MNDO_IP>
8.86078

>  <MNDO_LUMO>
-0.49832

>  <apol>
56.1371

>  <bpol>
28.2649

>  <mr>
10.415

>  <dipole>
0.848809

>  <dipoleX>
0.398087

>  <dipoleY>
-0.721233

>  <dipoleZ>
0.204518

>  <pmi>
8187.21

>  <pmiX>
6463.01

>  <pmiY>
1119.18

>  <pmiZ>
605.018

>  <rgyr>
4.65765

>  <a_acc>
4

>  <a_acid>
0

>  <a_base>
0

>  <a_don>
2

>  <a_hyd>
18

>  <vsa_acc>
40.7008

>  <vsa_acid>
0

>  <vsa_base>
0

>  <vsa_don>
5.68258

>  <vsa_hyd>
249.749

>  <vsa_other>
34.3576

>  <vsa_pol>
59.9503

>  <PM3_dipole>
3.9466

>  <PM3_E>
-102422

>  <PM3_Eele>
-824564

>  <PM3_HF>
-78.7901

>  <PM3_HOMO>
-8.84146

>  <PM3_IP>
8.84146

>  <PM3_LUMO>
-0.5791

>  <SlogP>
2.0408

>  <SlogP_VSA0>
25.3852

>  <SlogP_VSA1>
22.4538

>  <SlogP_VSA2>
40.6477

>  <SlogP_VSA3>
73.7583

>  <SlogP_VSA4>
54.0956

>  <SlogP_VSA5>
0

>  <SlogP_VSA6>
0

>  <SlogP_VSA7>
163.077

>  <SlogP_VSA8>
0

>  <SlogP_VSA9>
5.24343

>  <SMR>
10.3219

>  <SMR_VSA0>
71.5866

>  <SMR_VSA1>
31.6339

>  <SMR_VSA2>
16.7855

>  <SMR_VSA3>
11.6146

>  <SMR_VSA4>
4.7171

>  <SMR_VSA5>
158.36

>  <SMR_VSA6>
89.9635

>  <SMR_VSA7>
0

>  <ASA>
618.432

>  <ASA+>
259.379

>  <ASA->
260.495

>  <ASA_H>
436.73

>  <ASA_P>
181.702

>  <CASA+>
1374.97

>  <CASA->
1381.14

>  <DASA>
1.1157

>  <DCASA>
6.17481

>  <FASA+>
0.419414

>  <FASA->
0.421218

>  <FASA_H>
0.706189

>  <FASA_P>
0.293811

>  <FCASA+>
2.22331

>  <FCASA->
2.2333

>  <VSA>
387.72

>  <TPSA>
93.71

>  <density>
0.763714

>  <vdw_area>
363.756

>  <vdw_vol>
494.164

>  <vsurf_A>
1.15325

>  <vsurf_CP>
0.10658

>  <vsurf_CW1>
2.68676

>  <vsurf_CW2>
2.17791

>  <vsurf_CW3>
1.39684

>  <vsurf_CW4>
0.653149

>  <vsurf_CW5>
0.269239

>  <vsurf_CW6>
0.0712476

>  <vsurf_CW7>
0.00640943

>  <vsurf_CW8>
0

>  <vsurf_D1>
835.125

>  <vsurf_D2>
486.5

>  <vsurf_D3>
362.375

>  <vsurf_D4>
307.125

>  <vsurf_D5>
265.75

>  <vsurf_D6>
210.375

>  <vsurf_D7>
114

>  <vsurf_D8>
60.75

>  <vsurf_DD12>
0.5

>  <vsurf_DD13>
3.74166

>  <vsurf_DD23>
3.3541

>  <vsurf_DW12>
5.52268

>  <vsurf_DW13>
0.5

>  <vsurf_DW23>
5.67891

>  <vsurf_EDmin1>
-2.58987

>  <vsurf_EDmin2>
-2.54354

>  <vsurf_EDmin3>
-2.50656

>  <vsurf_EWmin1>
-5.52409

>  <vsurf_EWmin2>
-5.39311

>  <vsurf_EWmin3>
-5.31417

>  <vsurf_G>
1.33605

>  <vsurf_HB1>
327.75

>  <vsurf_HB2>
380.75

>  <vsurf_HB3>
339.5

>  <vsurf_HB4>
120.25

>  <vsurf_HB5>
41.5

>  <vsurf_HB6>
9.125

>  <vsurf_HB7>
1.375

>  <vsurf_HB8>
0

>  <vsurf_HL1>
0.135909

>  <vsurf_HL2>
0.035816

>  <vsurf_ID1>
0.368662

>  <vsurf_ID2>
0.446415

>  <vsurf_ID3>
0.425073

>  <vsurf_ID4>
0.423069

>  <vsurf_ID5>
0.393601

>  <vsurf_ID6>
0.419372

>  <vsurf_ID7>
0.502698

>  <vsurf_ID8>
0.857209

>  <vsurf_IW1>
0.243146

>  <vsurf_IW2>
0.258422

>  <vsurf_IW3>
0.270073

>  <vsurf_IW4>
0.483948

>  <vsurf_IW5>
0.752814

>  <vsurf_IW6>
1.54314

>  <vsurf_IW7>
2.55153

>  <vsurf_IW8>
0

>  <vsurf_R>
1.44755

>  <vsurf_S>
565.178

>  <vsurf_V>
818.125

>  <vsurf_W1>
1385.5

>  <vsurf_W2>
832.625

>  <vsurf_W3>
423.125

>  <vsurf_W4>
141.125

>  <vsurf_W5>
49.25

>  <vsurf_W6>
11

>  <vsurf_W7>
1.375

>  <vsurf_W8>
0

>  <vsurf_Wp1>
1057.75

>  <vsurf_Wp2>
451.875

>  <vsurf_Wp3>
83.625

>  <vsurf_Wp4>
20.875

>  <vsurf_Wp5>
7.75

>  <vsurf_Wp6>
1.875

>  <vsurf_Wp7>
0

>  <vsurf_Wp8>
0

>  <dens>
1.07254

>  <glob>
0.053983

>  <std_dim1>
4.60466

>  <std_dim2>
1.45128

>  <std_dim3>
1.06986

>  <vol>
351.875

>  <logP(o/w)>
1.773

$$$$
D6.cdx
  MOE2008           3D

 46 49  0  0  0  0  0  0  0  0999 V2000
   -7.3050    7.2720    0.0890 C   0  0  0  0  0  0  0  0  0  0  0  0
   -7.9620    8.1200   -0.0840 H   0  0  0  0  0  0  0  0  0  0  0  0
   -7.7960    6.1320    0.7200 C   0  0  0  0  0  0  0  0  0  0  0  0
   -8.8360    6.1010    1.0360 H   0  0  0  0  0  0  0  0  0  0  0  0
   -6.9740    5.0260    0.9530 C   0  0  0  0  0  0  0  0  0  0  0  0
   -7.3640    4.1390    1.4440 H   0  0  0  0  0  0  0  0  0  0  0  0
   -5.6420    5.1060    0.5300 C   0  0  0  0  0  0  0  0  0  0  0  0
   -5.1160    6.2320   -0.1070 C   0  0  0  0  0  0  0  0  0  0  0  0
   -5.9700    7.3350   -0.3290 C   0  0  0  0  0  0  0  0  0  0  0  0
   -5.5990    8.2290   -0.8220 H   0  0  0  0  0  0  0  0  0  0  0  0
   -4.6270    4.1840    0.6260 N   0  0  0  0  0  0  0  0  0  0  0  0
   -4.7230    3.2680    1.0420 H   0  0  0  0  0  0  0  0  0  0  0  0
   -3.4780    4.6870    0.0770 C   0  0  0  0  0  0  0  0  0  0  0  0
   -2.5770    4.0860    0.0650 H   0  0  0  0  0  0  0  0  0  0  0  0
   -3.7380    5.9600   -0.3960 C   0  0  0  0  0  0  0  0  0  0  0  0
   -2.7770    6.8350   -1.0550 C   0  0  0  0  0  0  0  0  0  0  0  0
   -1.3490    6.3670   -1.2640 C   0  0  0  0  0  0  0  0  0  0  0  0
   -0.3860    6.8510   -0.3840 N   0  0  0  0  0  0  0  0  0  0  0  0
    1.0070    6.4280   -0.5310 C   0  0  0  0  0  0  0  0  0  0  0  0
    1.2480    5.8210    0.3500 H   0  0  0  0  0  0  0  0  0  0  0  0
    1.1370    5.7950   -1.4150 H   0  0  0  0  0  0  0  0  0  0  0  0
    1.9520    7.6350   -0.6100 C   0  0  0  0  0  0  0  0  0  0  0  0
    1.7860    8.1840   -1.5440 H   0  0  0  0  0  0  0  0  0  0  0  0
    2.9830    7.2750   -0.6050 H   0  0  0  0  0  0  0  0  0  0  0  0
    1.6980    8.5810    0.4900 N   0  0  0  0  0  0  0  0  0  0  0  0
    0.2970    8.9950    0.6360 C   0  0  0  0  0  0  0  0  0  0  0  0
    0.1610    9.6350    1.5130 H   0  0  0  0  0  0  0  0  0  0  0  0
    0.0510    9.5910   -0.2510 H   0  0  0  0  0  0  0  0  0  0  0  0
   -0.6360    7.7820    0.7260 C   0  0  0  0  0  0  0  0  0  0  0  0
   -1.6760    8.1130    0.7530 H   0  0  0  0  0  0  0  0  0  0  0  0
   -0.4430    7.2270    1.6520 H   0  0  0  0  0  0  0  0  0  0  0  0
    2.6490    9.0860    1.3710 C   0  0  0  0  0  0  0  0  0  0  0  0
    4.0740    8.7910    1.1200 C   0  0  0  0  0  0  0  0  0  0  0  0
    4.7830    8.0410    2.0600 C   0  0  0  0  0  0  0  0  0  0  0  0
    4.2990    7.6600    2.9540 H   0  0  0  0  0  0  0  0  0  0  0  0
    6.1290    7.7860    1.8340 C   0  0  0  0  0  0  0  0  0  0  0  0
    6.7760    8.2750    0.7010 C   0  0  0  0  0  0  0  0  0  0  0  0
    7.8300    8.0630    0.5490 H   0  0  0  0  0  0  0  0  0  0  0  0
    6.0660    9.0410   -0.2250 C   0  0  0  0  0  0  0  0  0  0  0  0
    6.5690    9.4340   -1.1060 H   0  0  0  0  0  0  0  0  0  0  0  0
    4.7120    9.3070   -0.0150 C   0  0  0  0  0  0  0  0  0  0  0  0
    4.1620    9.9160   -0.7290 H   0  0  0  0  0  0  0  0  0  0  0  0
   -3.0530    7.9640   -1.4530 O   0  0  0  0  0  0  0  0  0  0  0  0
   -1.1400    5.5910   -2.1890 O   0  0  0  0  0  0  0  0  0  0  0  0
    2.3900    9.7650    2.3600 O   0  0  0  0  0  0  0  0  0  0  0  0
    6.8190    7.0570    2.7210 F   0  0  0  0  0  0  0  0  0  0  0  0
  1  2  1  0  0  0  0
  1  3  1  0  0  0  0
  1  9  2  0  0  0  0
  3  4  1  0  0  0  0
  3  5  2  0  0  0  0
  5  6  1  0  0  0  0
  5  7  1  0  0  0  0
  7  8  2  0  0  0  0
  7 11  1  0  0  0  0
  8  9  1  0  0  0  0
  8 15  1  0  0  0  0
  9 10  1  0  0  0  0
 11 12  1  0  0  0  0
 11 13  1  0  0  0  0
 13 14  1  0  0  0  0
 13 15  2  0  0  0  0
 15 16  1  0  0  0  0
 16 17  1  0  0  0  0
 16 43  2  0  0  0  0
 17 18  1  0  0  0  0
 17 44  2  0  0  0  0
 18 19  1  0  0  0  0
 18 29  1  0  0  0  0
 19 20  1  0  0  0  0
 19 21  1  0  0  0  0
 19 22  1  0  0  0  0
 22 23  1  0  0  0  0
 22 24  1  0  0  0  0
 22 25  1  0  0  0  0
 25 26  1  0  0  0  0
 25 32  1  0  0  0  0
 26 27  1  0  0  0  0
 26 28  1  0  0  0  0
 26 29  1  0  0  0  0
 29 30  1  0  0  0  0
 29 31  1  0  0  0  0
 32 33  1  0  0  0  0
 32 45  2  0  0  0  0
 33 34  1  0  0  0  0
 33 41  2  0  0  0  0
 34 35  1  0  0  0  0
 34 36  2  0  0  0  0
 36 37  1  0  0  0  0
 36 46  1  0  0  0  0
 37 38  1  0  0  0  0
 37 39  2  0  0  0  0
 39 40  1  0  0  0  0
 39 41  1  0  0  0  0
 41 42  1  0  0  0  0
M  END
>  <Activity>
5.559

>  <AM1_dipole>
4.06895

>  <AM1_E>
-115338

>  <AM1_Eele>
-825284

>  <AM1_HF>
-43.1268

>  <AM1_HOMO>
-8.88515

>  <AM1_IP>
8.88515

>  <AM1_LUMO>
-0.49738

>  <diameter>
15

>  <petitjean>
0.466667

>  <petitjeanSC>
0.875

>  <radius>
8

>  <VDistEq>
3.68917

>  <VDistMa>
9.28967

>  <weinerPath>
2243

>  <weinerPol>
46

>  <BCUT_PEOE_0>
-2.71179

>  <BCUT_PEOE_1>
-0.639411

>  <BCUT_PEOE_2>
0.655395

>  <BCUT_PEOE_3>
2.65037

>  <BCUT_SLOGP_0>
-2.86002

>  <BCUT_SLOGP_1>
-0.515789

>  <BCUT_SLOGP_2>
0.720204

>  <BCUT_SLOGP_3>
2.50321

>  <BCUT_SMR_0>
-2.43203

>  <BCUT_SMR_1>
-0.433379

>  <BCUT_SMR_2>
0.826244

>  <BCUT_SMR_3>
2.92023

>  <GCUT_PEOE_0>
-0.860602

>  <GCUT_PEOE_1>
-0.446255

>  <GCUT_PEOE_2>
0.0734765

>  <GCUT_PEOE_3>
2.65032

>  <GCUT_SLOGP_0>
-0.976485

>  <GCUT_SLOGP_1>
-0.335835

>  <GCUT_SLOGP_2>
0.150342

>  <GCUT_SLOGP_3>
2.6294

>  <GCUT_SMR_0>
-0.508915

>  <GCUT_SMR_1>
-0.215862

>  <GCUT_SMR_2>
0.193277

>  <GCUT_SMR_3>
2.92013

>  <a_aro>
15

>  <a_count>
46

>  <a_IC>
77.2768

>  <a_ICM>
1.67993

>  <a_nH>
18

>  <b_1rotN>
5

>  <b_1rotR>
0.16129

>  <b_ar>
16

>  <b_count>
49

>  <b_double>
3

>  <b_rotN>
5

>  <b_rotR>
0.16129

>  <b_single>
30

>  <b_triple>
0

>  <chi0v>
15.0217

>  <chi0v_C>
12.0246

>  <chi1v>
8.98955

>  <chi1v_C>
5.93739

>  <chiral>
0

>  <chiral_u>
0

>  <nmol>
1

>  <reactive>
0

>  <rings>
4

>  <Weight>
379.391

>  <a_heavy>
28

>  <a_nB>
0

>  <a_nBr>
0

>  <a_nC>
21

>  <a_nCl>
0

>  <a_nF>
1

>  <a_nI>
0

>  <a_nN>
3

>  <a_nO>
3

>  <a_nP>
0

>  <a_nS>
0

>  <b_heavy>
31

>  <chi0>
19.673

>  <chi0_C>
13.8112

>  <chi1>
13.5417

>  <chi1_C>
8.0244

>  <FCharge>
0

>  <VAdjEq>
0.398935

>  <VAdjMa>
5.9542

>  <zagreb>
150

>  <balabanJ>
1.27183

>  <PEOE_PC+>
2.40391

>  <PEOE_PC->
-2.40391

>  <PEOE_RPC+>
0.122758

>  <PEOE_RPC->
0.149734

>  <PEOE_VSA+0>
80.6318

>  <PEOE_VSA+1>
74.7201

>  <PEOE_VSA+2>
9.02085

>  <PEOE_VSA+3>
8.61901

>  <PEOE_VSA+4>
0

>  <PEOE_VSA+5>
34.3576

>  <PEOE_VSA+6>
0

>  <PEOE_VSA-0>
49.0196

>  <PEOE_VSA-1>
49.0196

>  <PEOE_VSA-2>
0

>  <PEOE_VSA-3>
0

>  <PEOE_VSA-4>
11.9086

>  <PEOE_VSA-5>
40.7008

>  <PEOE_VSA-6>
0.136891

>  <PEOE_VSA_FHYD>
0.756785

>  <PEOE_VSA_FNEG>
0.42103

>  <PEOE_VSA_FPNEG>
0.14728

>  <PEOE_VSA_FPOL>
0.243215

>  <PEOE_VSA_FPOS>
0.57897

>  <PEOE_VSA_FPPOS>
0.0959347

>  <PEOE_VSA_HYD>
271.031

>  <PEOE_VSA_NEG>
150.786

>  <PEOE_VSA_PNEG>
52.7463

>  <PEOE_VSA_POL>
87.1039

>  <PEOE_VSA_POS>
207.349

>  <PEOE_VSA_PPOS>
34.3576

>  <PC+>
4.959

>  <PC->
-4.96

>  <Q_PC+>
4.959

>  <Q_PC->
-4.96

>  <Q_RPC+>
0.132285

>  <Q_RPC->
0.133065

>  <Q_VSA_FHYD>
0.572249

>  <Q_VSA_FNEG>
0.49228

>  <Q_VSA_FPNEG>
0.160405

>  <Q_VSA_FPOL>
0.427751

>  <Q_VSA_FPOS>
0.50772

>  <Q_VSA_FPPOS>
0.267346

>  <Q_VSA_HYD>
204.942

>  <Q_VSA_NEG>
176.303

>  <Q_VSA_PNEG>
57.4467

>  <Q_VSA_POL>
153.193

>  <Q_VSA_POS>
181.832

>  <Q_VSA_PPOS>
95.7459

>  <RPC+>
0.132285

>  <RPC->
0.133065

>  <lip_acc>
6

>  <lip_don>
1

>  <lip_druglike>
1

>  <lip_violation>
0

>  <opr_brigid>
22

>  <opr_leadlike>
1

>  <opr_nring>
4

>  <opr_nrot>
5

>  <opr_violation>
0

>  <E>
88.0343

>  <E_ang>
7.90857

>  <E_ele>
27.1629

>  <E_nb>
72.1493

>  <E_oop>
0.0162044

>  <E_sol>
-19.6533

>  <E_stb>
0.245023

>  <E_str>
5.66234

>  <E_strain>
0.00494454

>  <E_tor>
2.05282

>  <E_vdw>
44.9864

>  <E_rele>
0

>  <E_rnb>
0

>  <E_rsol>
0

>  <E_rvdw>
0

>  <Kier1>
21.2404

>  <Kier2>
9.42769

>  <Kier3>
4.69444

>  <KierA1>
14.4569

>  <KierA2>
6.31723

>  <KierA3>
3.11071

>  <KierFlex>
3.26171

>  <logS>
-4.32457

>  <MNDO_dipole>
3.06038

>  <MNDO_E>
-115419

>  <MNDO_Eele>
-817708

>  <MNDO_HF>
-59.8553

>  <MNDO_HOMO>
-8.85703

>  <MNDO_IP>
8.85703

>  <MNDO_LUMO>
-0.57318

>  <apol>
55.2253

>  <bpol>
28.3747

>  <mr>
10.3492

>  <dipole>
0.792303

>  <dipoleX>
0.172264

>  <dipoleY>
-0.77187

>  <dipoleZ>
0.047805

>  <pmi>
9133

>  <pmiX>
7717.74

>  <pmiY>
865.64

>  <pmiZ>
549.615

>  <rgyr>
4.9064

>  <a_acc>
3

>  <a_acid>
0

>  <a_base>
0

>  <a_don>
1

>  <a_hyd>
19

>  <vsa_acc>
40.7008

>  <vsa_acid>
0

>  <vsa_base>
0

>  <vsa_don>
5.68258

>  <vsa_hyd>
262.22

>  <vsa_other>
34.3576

>  <vsa_pol>
46.3833

>  <PM3_dipole>
3.5836

>  <PM3_E>
-105444

>  <PM3_Eele>
-813931

>  <PM3_HF>
-69.6817

>  <PM3_HOMO>
-8.84033

>  <PM3_IP>
8.84033

>  <PM3_LUMO>
-0.57479

>  <SlogP>
2.4743

>  <SlogP_VSA0>
0

>  <SlogP_VSA1>
22.4538

>  <SlogP_VSA2>
49.7688

>  <SlogP_VSA3>
73.7583

>  <SlogP_VSA4>
54.0956

>  <SlogP_VSA5>
0

>  <SlogP_VSA6>
0

>  <SlogP_VSA7>
163.077

>  <SlogP_VSA8>
0

>  <SlogP_VSA9>
14.9601

>  <SMR>
10.1513

>  <SMR_VSA0>
71.5866

>  <SMR_VSA1>
21.2087

>  <SMR_VSA2>
25.9065

>  <SMR_VSA3>
6.37115

>  <SMR_VSA4>
4.7171

>  <SMR_VSA5>
158.36

>  <SMR_VSA6>
89.9635

>  <SMR_VSA7>
0

>  <ASA>
625.991

>  <ASA+>
250.886

>  <ASA->
268.869

>  <ASA_H>
470.174

>  <ASA_P>
155.817

>  <CASA+>
1244.15

>  <CASA->
1333.59

>  <DASA>
17.9823

>  <DCASA>
89.4429

>  <FASA+>
0.400783

>  <FASA->
0.429509

>  <FASA_H>
0.751088

>  <FASA_P>
0.248912

>  <FCASA+>
1.98748

>  <FCASA->
2.13036

>  <VSA>
383.621

>  <TPSA>
73.48

>  <density>
0.776193

>  <vdw_area>
358.135

>  <vdw_vol>
488.784

>  <vsurf_A>
1.19195

>  <vsurf_CP>
0.130822

>  <vsurf_CW1>
2.69895

>  <vsurf_CW2>
2.24016

>  <vsurf_CW3>
1.51873

>  <vsurf_CW4>
0.604691

>  <vsurf_CW5>
0.206419

>  <vsurf_CW6>
0.0605952

>  <vsurf_CW7>
0.00553484

>  <vsurf_CW8>
0

>  <vsurf_D1>
823

>  <vsurf_D2>
479.625

>  <vsurf_D3>
350.75

>  <vsurf_D4>
297.25

>  <vsurf_D5>
249.5

>  <vsurf_D6>
199.625

>  <vsurf_D7>
117

>  <vsurf_D8>
65

>  <vsurf_DD12>
5.40833

>  <vsurf_DD13>
0.5

>  <vsurf_DD23>
5.24404

>  <vsurf_DW12>
0.707107

>  <vsurf_DW13>
5.52268

>  <vsurf_DW23>
5.04975

>  <vsurf_EDmin1>
-2.65566

>  <vsurf_EDmin2>
-2.65028

>  <vsurf_EDmin3>
-2.60792

>  <vsurf_EWmin1>
-5.51416

>  <vsurf_EWmin2>
-5.47638

>  <vsurf_EWmin3>
-5.38527

>  <vsurf_G>
1.35099

>  <vsurf_HB1>
344.25

>  <vsurf_HB2>
426.625

>  <vsurf_HB3>
360.25

>  <vsurf_HB4>
108.5

>  <vsurf_HB5>
31.125

>  <vsurf_HB6>
7.625

>  <vsurf_HB7>
1

>  <vsurf_HB8>
0

>  <vsurf_HL1>
0.106914

>  <vsurf_HL2>
0.0302775

>  <vsurf_ID1>
0.771318

>  <vsurf_ID2>
0.786808

>  <vsurf_ID3>
0.863626

>  <vsurf_ID4>
0.962279

>  <vsurf_ID5>
1.13623

>  <vsurf_ID6>
1.06715

>  <vsurf_ID7>
0.799975

>  <vsurf_ID8>
1.2871

>  <vsurf_IW1>
0.202607

>  <vsurf_IW2>
0.49677

>  <vsurf_IW3>
0.606448

>  <vsurf_IW4>
0.569015

>  <vsurf_IW5>
0.945886

>  <vsurf_IW6>
1.69454

>  <vsurf_IW7>
3.00314

>  <vsurf_IW8>
0

>  <vsurf_R>
1.43001

>  <vsurf_S>
570.277

>  <vsurf_V>
815.5

>  <vsurf_W1>
1393.88

>  <vsurf_W2>
874.25

>  <vsurf_W3>
436.125

>  <vsurf_W4>
125.625

>  <vsurf_W5>
37.5

>  <vsurf_W6>
9

>  <vsurf_W7>
1

>  <vsurf_W8>
0

>  <vsurf_Wp1>
1049.63

>  <vsurf_Wp2>
447.625

>  <vsurf_Wp3>
75.875

>  <vsurf_Wp4>
17.125

>  <vsurf_Wp5>
6.375

>  <vsurf_Wp6>
1.375

>  <vsurf_Wp7>
0

>  <vsurf_Wp8>
0

>  <dens>
1.09099

>  <glob>
0.056927

>  <std_dim1>
4.72388

>  <std_dim2>
1.35688

>  <std_dim3>
1.12709

>  <vol>
347.75

>  <logP(o/w)>
2.273

$$$$
D6.cdx
  MOE2008           3D

 46 49  0  0  0  0  0  0  0  0999 V2000
   -7.2780    3.0810    1.1020 C   0  0  0  0  0  0  0  0  0  0  0  0
   -7.8760    3.5830    1.8590 H   0  0  0  0  0  0  0  0  0  0  0  0
   -7.8910    2.5730   -0.0400 C   0  0  0  0  0  0  0  0  0  0  0  0
   -8.9650    2.6840   -0.1660 H   0  0  0  0  0  0  0  0  0  0  0  0
   -7.1490    1.9200   -1.0270 C   0  0  0  0  0  0  0  0  0  0  0  0
   -7.6330    1.5230   -1.9140 H   0  0  0  0  0  0  0  0  0  0  0  0
   -5.7680    1.7960   -0.8260 C   0  0  0  0  0  0  0  0  0  0  0  0
   -5.1200    2.2930    0.3070 C   0  0  0  0  0  0  0  0  0  0  0  0
   -5.8970    2.9490    1.2870 C   0  0  0  0  0  0  0  0  0  0  0  0
   -5.4300    3.3480    2.1840 H   0  0  0  0  0  0  0  0  0  0  0  0
   -4.8100    1.2080   -1.6160 N   0  0  0  0  0  0  0  0  0  0  0  0
   -4.9940    0.7590   -2.5030 H   0  0  0  0  0  0  0  0  0  0  0  0
   -3.5780    1.3180   -1.0280 C   0  0  0  0  0  0  0  0  0  0  0  0
   -2.7060    0.9010   -1.5160 H   0  0  0  0  0  0  0  0  0  0  0  0
   -3.7250    1.9850    0.1750 C   0  0  0  0  0  0  0  0  0  0  0  0
   -2.6520    2.3020    1.1090 C   0  0  0  0  0  0  0  0  0  0  0  0
   -1.2240    1.8820    0.7990 C   0  0  0  0  0  0  0  0  0  0  0  0
   -0.3160    2.8990    0.5060 N   0  0  0  0  0  0  0  0  0  0  0  0
    1.0820    2.5530    0.2470 C   0  0  0  0  0  0  0  0  0  0  0  0
    1.3370    1.6140    0.7490 H   0  0  0  0  0  0  0  0  0  0  0  0
    1.1690    2.3840   -0.8330 H   0  0  0  0  0  0  0  0  0  0  0  0
    2.0420    3.6640    0.6850 C   0  0  0  0  0  0  0  0  0  0  0  0
    3.0700    3.3880    0.4330 H   0  0  0  0  0  0  0  0  0  0  0  0
    1.9790    3.7950    1.7720 H   0  0  0  0  0  0  0  0  0  0  0  0
    1.7120    4.9630    0.0790 N   0  0  0  0  0  0  0  0  0  0  0  0
    0.3280    5.1500   -0.3640 C   0  0  0  0  0  0  0  0  0  0  0  0
    0.0600    6.2120   -0.3200 H   0  0  0  0  0  0  0  0  0  0  0  0
    0.2950    4.8470   -1.4180 H   0  0  0  0  0  0  0  0  0  0  0  0
   -0.6730    4.3220    0.4480 C   0  0  0  0  0  0  0  0  0  0  0  0
   -1.6780    4.4360    0.0290 H   0  0  0  0  0  0  0  0  0  0  0  0
   -0.6990    4.6800    1.4840 H   0  0  0  0  0  0  0  0  0  0  0  0
    2.6160    6.0030   -0.1280 C   0  0  0  0  0  0  0  0  0  0  0  0
    3.9810    5.8840    0.4320 C   0  0  0  0  0  0  0  0  0  0  0  0
    4.1760    5.7830    1.8120 C   0  0  0  0  0  0  0  0  0  0  0  0
    3.3270    5.7780    2.4900 H   0  0  0  0  0  0  0  0  0  0  0  0
    5.4760    5.7060    2.3080 C   0  0  0  0  0  0  0  0  0  0  0  0
    6.5710    5.7420    1.4430 C   0  0  0  0  0  0  0  0  0  0  0  0
    7.5840    5.6840    1.8330 H   0  0  0  0  0  0  0  0  0  0  0  0
    6.3690    5.8660    0.0680 C   0  0  0  0  0  0  0  0  0  0  0  0
    7.2210    5.9090   -0.6060 H   0  0  0  0  0  0  0  0  0  0  0  0
    5.0720    5.9450   -0.4410 C   0  0  0  0  0  0  0  0  0  0  0  0
    4.9150    6.0560   -1.5110 H   0  0  0  0  0  0  0  0  0  0  0  0
   -2.8320    2.9180    2.1570 O   0  0  0  0  0  0  0  0  0  0  0  0
   -0.9640    0.6840    0.8210 O   0  0  0  0  0  0  0  0  0  0  0  0
    2.3590    7.0230   -0.7610 O   0  0  0  0  0  0  0  0  0  0  0  0
    5.7350    5.5720    4.0050 Cl  0  0  0  0  0  0  0  0  0  0  0  0
  1  2  1  0  0  0  0
  1  3  1  0  0  0  0
  1  9  2  0  0  0  0
  3  4  1  0  0  0  0
  3  5  2  0  0  0  0
  5  6  1  0  0  0  0
  5  7  1  0  0  0  0
  7  8  2  0  0  0  0
  7 11  1  0  0  0  0
  8  9  1  0  0  0  0
  8 15  1  0  0  0  0
  9 10  1  0  0  0  0
 11 12  1  0  0  0  0
 11 13  1  0  0  0  0
 13 14  1  0  0  0  0
 13 15  2  0  0  0  0
 15 16  1  0  0  0  0
 16 17  1  0  0  0  0
 16 43  2  0  0  0  0
 17 18  1  0  0  0  0
 17 44  2  0  0  0  0
 18 19  1  0  0  0  0
 18 29  1  0  0  0  0
 19 20  1  0  0  0  0
 19 21  1  0  0  0  0
 19 22  1  0  0  0  0
 22 23  1  0  0  0  0
 22 24  1  0  0  0  0
 22 25  1  0  0  0  0
 25 26  1  0  0  0  0
 25 32  1  0  0  0  0
 26 27  1  0  0  0  0
 26 28  1  0  0  0  0
 26 29  1  0  0  0  0
 29 30  1  0  0  0  0
 29 31  1  0  0  0  0
 32 33  1  0  0  0  0
 32 45  2  0  0  0  0
 33 34  1  0  0  0  0
 33 41  2  0  0  0  0
 34 35  1  0  0  0  0
 34 36  2  0  0  0  0
 36 37  1  0  0  0  0
 36 46  1  0  0  0  0
 37 38  1  0  0  0  0
 37 39  2  0  0  0  0
 39 40  1  0  0  0  0
 39 41  1  0  0  0  0
 41 42  1  0  0  0  0
M  END
>  <Activity>
4.7569

>  <AM1_dipole>
4.79017

>  <AM1_E>
-112770

>  <AM1_Eele>
-817464

>  <AM1_HF>
-3.79397

>  <AM1_HOMO>
-8.89433

>  <AM1_IP>
8.89433

>  <AM1_LUMO>
-0.50716

>  <diameter>
15

>  <petitjean>
0.466667

>  <petitjeanSC>
0.875

>  <radius>
8

>  <VDistEq>
3.68917

>  <VDistMa>
9.28967

>  <weinerPath>
2243

>  <weinerPol>
46

>  <BCUT_PEOE_0>
-2.71184

>  <BCUT_PEOE_1>
-0.639431

>  <BCUT_PEOE_2>
0.655411

>  <BCUT_PEOE_3>
2.6503

>  <BCUT_SLOGP_0>
-2.86

>  <BCUT_SLOGP_1>
-0.495273

>  <BCUT_SLOGP_2>
0.721523

>  <BCUT_SLOGP_3>
2.50403

>  <BCUT_SMR_0>
-2.43202

>  <BCUT_SMR_1>
-0.433229

>  <BCUT_SMR_2>
0.82628

>  <BCUT_SMR_3>
2.9203

>  <GCUT_PEOE_0>
-0.860602

>  <GCUT_PEOE_1>
-0.405893

>  <GCUT_PEOE_2>
0.0730767

>  <GCUT_PEOE_3>
2.64915

>  <GCUT_SLOGP_0>
-0.976484

>  <GCUT_SLOGP_1>
-0.335835

>  <GCUT_SLOGP_2>
0.151278

>  <GCUT_SLOGP_3>
2.63607

>  <GCUT_SMR_0>
-0.508891

>  <GCUT_SMR_1>
-0.200698

>  <GCUT_SMR_2>
0.241832

>  <GCUT_SMR_3>
2.92303

>  <a_aro>
15

>  <a_count>
46

>  <a_IC>
77.2768

>  <a_ICM>
1.67993

>  <a_nH>
18

>  <b_1rotN>
5

>  <b_1rotR>
0.16129

>  <b_ar>
16

>  <b_count>
49

>  <b_double>
3

>  <b_rotN>
5

>  <b_rotR>
0.16129

>  <b_single>
30

>  <b_triple>
0

>  <chi0v>
15.7776

>  <chi0v_C>
12.0246

>  <chi1v>
9.36751

>  <chi1v_C>
5.93739

>  <chiral>
0

>  <chiral_u>
0

>  <nmol>
1

>  <reactive>
0

>  <rings>
4

>  <Weight>
395.846

>  <a_heavy>
28

>  <a_nB>
0

>  <a_nBr>
0

>  <a_nC>
21

>  <a_nCl>
1

>  <a_nF>
0

>  <a_nI>
0

>  <a_nN>
3

>  <a_nO>
3

>  <a_nP>
0

>  <a_nS>
0

>  <b_heavy>
31

>  <chi0>
19.673

>  <chi0_C>
13.8112

>  <chi1>
13.5417

>  <chi1_C>
8.0244

>  <FCharge>
0

>  <VAdjEq>
0.398935

>  <VAdjMa>
5.9542

>  <zagreb>
150

>  <balabanJ>
1.27183

>  <PEOE_PC+>
2.31725

>  <PEOE_PC->
-2.31725

>  <PEOE_RPC+>
0.127349

>  <PEOE_RPC->
0.155333

>  <PEOE_VSA+0>
85.1516

>  <PEOE_VSA+1>
74.7201

>  <PEOE_VSA+2>
0

>  <PEOE_VSA+3>
8.61901

>  <PEOE_VSA+4>
0

>  <PEOE_VSA+5>
34.3576

>  <PEOE_VSA+6>
0

>  <PEOE_VSA-0>
49.0196

>  <PEOE_VSA-1>
78.6016

>  <PEOE_VSA-2>
0

>  <PEOE_VSA-3>
0

>  <PEOE_VSA-4>
0

>  <PEOE_VSA-5>
40.7008

>  <PEOE_VSA-6>
0.136891

>  <PEOE_VSA_FHYD>
0.797485

>  <PEOE_VSA_FNEG>
0.453691

>  <PEOE_VSA_FPNEG>
0.109983

>  <PEOE_VSA_FPOL>
0.202515

>  <PEOE_VSA_FPOS>
0.546309

>  <PEOE_VSA_FPPOS>
0.0925314

>  <PEOE_VSA_HYD>
296.112

>  <PEOE_VSA_NEG>
168.459

>  <PEOE_VSA_PNEG>
40.8377

>  <PEOE_VSA_POL>
75.1952

>  <PEOE_VSA_POS>
202.848

>  <PEOE_VSA_PPOS>
34.3576

>  <PC+>
4.946

>  <PC->
-4.947

>  <Q_PC+>
4.946

>  <Q_PC->
-4.947

>  <Q_RPC+>
0.132632

>  <Q_RPC->
0.133414

>  <Q_VSA_FHYD>
0.587424

>  <Q_VSA_FNEG>
0.522414

>  <Q_VSA_FPNEG>
0.154715

>  <Q_VSA_FPOL>
0.412576

>  <Q_VSA_FPOS>
0.477586

>  <Q_VSA_FPPOS>
0.257862

>  <Q_VSA_HYD>
218.115

>  <Q_VSA_NEG>
193.976

>  <Q_VSA_PNEG>
57.4467

>  <Q_VSA_POL>
153.193

>  <Q_VSA_POS>
177.331

>  <Q_VSA_PPOS>
95.7459

>  <RPC+>
0.132632

>  <RPC->
0.133414

>  <lip_acc>
6

>  <lip_don>
1

>  <lip_druglike>
1

>  <lip_violation>
0

>  <opr_brigid>
22

>  <opr_leadlike>
1

>  <opr_nring>
4

>  <opr_nrot>
5

>  <opr_violation>
0

>  <E>
90.11

>  <E_ang>
6.89048

>  <E_ele>
27.2133

>  <E_nb>
73.3501

>  <E_oop>
0.0461668

>  <E_sol>
-18.9172

>  <E_stb>
0.342218

>  <E_str>
5.76905

>  <E_strain>
0.00357753

>  <E_tor>
3.71205

>  <E_vdw>
46.1368

>  <E_rele>
0

>  <E_rnb>
0

>  <E_rsol>
0

>  <E_rvdw>
0

>  <Kier1>
21.2404

>  <Kier2>
9.42769

>  <Kier3>
4.69444

>  <KierA1>
15.4057

>  <KierA2>
6.75023

>  <KierA3>
3.33044

>  <KierFlex>
3.71401

>  <logS>
-4.76388

>  <MNDO_dipole>
4.40704

>  <MNDO_E>
-112541

>  <MNDO_Eele>
-809377

>  <MNDO_HF>
-22.6381

>  <MNDO_HOMO>
-8.8356

>  <MNDO_IP>
8.8356

>  <MNDO_LUMO>
-0.58106

>  <apol>
56.8483

>  <bpol>
27.5917

>  <mr>
10.7803

>  <dipole>
1.08002

>  <dipoleX>
0.180267

>  <dipoleY>
-0.399408

>  <dipoleZ>
-0.987124

>  <pmi>
10135.2

>  <pmiX>
7973.07

>  <pmiY>
1359.38

>  <pmiZ>
802.758

>  <rgyr>
5.06003

>  <a_acc>
3

>  <a_acid>
0

>  <a_base>
0

>  <a_don>
1

>  <a_hyd>
19

>  <vsa_acc>
40.7008

>  <vsa_acid>
0

>  <vsa_base>
0

>  <vsa_don>
5.68258

>  <vsa_hyd>
275.392

>  <vsa_other>
34.3576

>  <vsa_pol>
46.3833

>  <PM3_dipole>
4.43421

>  <PM3_E>
-102593

>  <PM3_Eele>
-801662

>  <PM3_HF>
-38.1977

>  <PM3_HOMO>
-8.82965

>  <PM3_IP>
8.82965

>  <PM3_LUMO>
-0.5601

>  <SlogP>
2.9886

>  <SlogP_VSA0>
0

>  <SlogP_VSA1>
22.4538

>  <SlogP_VSA2>
40.6477

>  <SlogP_VSA3>
73.7583

>  <SlogP_VSA4>
54.0956

>  <SlogP_VSA5>
0

>  <SlogP_VSA6>
3.50061

>  <SlogP_VSA7>
163.077

>  <SlogP_VSA8>
0

>  <SlogP_VSA9>
39.1486

>  <SMR>
10.6565

>  <SMR_VSA0>
71.5866

>  <SMR_VSA1>
6.24863

>  <SMR_VSA2>
16.7855

>  <SMR_VSA3>
9.87176

>  <SMR_VSA4>
4.7171

>  <SMR_VSA5>
158.36

>  <SMR_VSA6>
89.9635

>  <SMR_VSA7>
39.1486

>  <ASA>
647.097

>  <ASA+>
234.802

>  <ASA->
301.001

>  <ASA_H>
494.751

>  <ASA_P>
152.346

>  <CASA+>
1161.33

>  <CASA->
1489.05

>  <DASA>
66.1997

>  <DCASA>
327.725

>  <FASA+>
0.362854

>  <FASA->
0.465156

>  <FASA_H>
0.76457

>  <FASA_P>
0.23543

>  <FCASA+>
1.79467

>  <FCASA->
2.30113

>  <VSA>
393.829

>  <TPSA>
73.48

>  <density>
0.78917

>  <vdw_area>
371.307

>  <vdw_vol>
501.598

>  <vsurf_A>
1.07585

>  <vsurf_CP>
0.162884

>  <vsurf_CW1>
2.65729

>  <vsurf_CW2>
2.08871

>  <vsurf_CW3>
1.26232

>  <vsurf_CW4>
0.509713

>  <vsurf_CW5>
0.19559

>  <vsurf_CW6>
0.0614953

>  <vsurf_CW7>
0.00448398

>  <vsurf_CW8>
0

>  <vsurf_D1>
976.625

>  <vsurf_D2>
574.375

>  <vsurf_D3>
429.375

>  <vsurf_D4>
361.125

>  <vsurf_D5>
314.25

>  <vsurf_D6>
256.5

>  <vsurf_D7>
150.25

>  <vsurf_D8>
85.75

>  <vsurf_DD12>
0.707107

>  <vsurf_DD13>
2.91548

>  <vsurf_DD23>
2.34521

>  <vsurf_DW12>
0.707107

>  <vsurf_DW13>
6

>  <vsurf_DW23>
5.52268

>  <vsurf_EDmin1>
-2.61244

>  <vsurf_EDmin2>
-2.60218

>  <vsurf_EDmin3>
-2.58905

>  <vsurf_EWmin1>
-5.5843

>  <vsurf_EWmin2>
-5.54282

>  <vsurf_EWmin3>
-5.41345

>  <vsurf_G>
1.36397

>  <vsurf_HB1>
303.625

>  <vsurf_HB2>
331.75

>  <vsurf_HB3>
291

>  <vsurf_HB4>
100.375

>  <vsurf_HB5>
31.25

>  <vsurf_HB6>
8.5

>  <vsurf_HB7>
0.75

>  <vsurf_HB8>
0

>  <vsurf_HL1>
0.0882096

>  <vsurf_HL2>
0.0280374

>  <vsurf_ID1>
0.245781

>  <vsurf_ID2>
0.195551

>  <vsurf_ID3>
0.238397

>  <vsurf_ID4>
0.274029

>  <vsurf_ID5>
0.350332

>  <vsurf_ID6>
0.552195

>  <vsurf_ID7>
0.591616

>  <vsurf_ID8>
0.519096

>  <vsurf_IW1>
0.322115

>  <vsurf_IW2>
0.707041

>  <vsurf_IW3>
0.961622

>  <vsurf_IW4>
1.00195

>  <vsurf_IW5>
0.843204

>  <vsurf_IW6>
0.80529

>  <vsurf_IW7>
3.68499

>  <vsurf_IW8>
0

>  <vsurf_R>
1.43454

>  <vsurf_S>
590.606

>  <vsurf_V>
847.25

>  <vsurf_W1>
1423.63

>  <vsurf_W2>
802.875

>  <vsurf_W3>
376.875

>  <vsurf_W4>
116.625

>  <vsurf_W5>
37.875

>  <vsurf_W6>
10.125

>  <vsurf_W7>
0.75

>  <vsurf_W8>
0

>  <vsurf_Wp1>
1120

>  <vsurf_Wp2>
471.125

>  <vsurf_Wp3>
85.875

>  <vsurf_Wp4>
16.25

>  <vsurf_Wp5>
6.625

>  <vsurf_Wp6>
1.625

>  <vsurf_Wp7>
0

>  <vsurf_Wp8>
0

>  <dens>
1.10533

>  <glob>
0.0568056

>  <std_dim1>
4.80392

>  <std_dim2>
1.32734

>  <std_dim3>
1.14496

>  <vol>
358.125

>  <logP(o/w)>
2.712

$$$$
D6.cdx
  MOE2008           3D

 46 49  0  0  0  0  0  0  0  0999 V2000
   -7.0750   -0.7130    0.7240 C   0  0  0  0  0  0  0  0  0  0  0  0
   -7.9330   -0.0560    0.6030 H   0  0  0  0  0  0  0  0  0  0  0  0
   -7.1340   -1.7690    1.6290 C   0  0  0  0  0  0  0  0  0  0  0  0
   -8.0400   -1.9280    2.2090 H   0  0  0  0  0  0  0  0  0  0  0  0
   -6.0480   -2.6320    1.8030 C   0  0  0  0  0  0  0  0  0  0  0  0
   -6.1010   -3.4550    2.5080 H   0  0  0  0  0  0  0  0  0  0  0  0
   -4.9010   -2.3940    1.0350 C   0  0  0  0  0  0  0  0  0  0  0  0
   -4.8070   -1.3450    0.1190 C   0  0  0  0  0  0  0  0  0  0  0  0
   -5.9200   -0.4890   -0.0350 C   0  0  0  0  0  0  0  0  0  0  0  0
   -5.8870    0.3370   -0.7400 H   0  0  0  0  0  0  0  0  0  0  0  0
   -3.7070   -3.0730    0.9980 N   0  0  0  0  0  0  0  0  0  0  0  0
   -3.4920   -3.8860    1.5600 H   0  0  0  0  0  0  0  0  0  0  0  0
   -2.8590   -2.4910    0.0940 C   0  0  0  0  0  0  0  0  0  0  0  0
   -1.8710   -2.9050   -0.0650 H   0  0  0  0  0  0  0  0  0  0  0  0
   -3.5050   -1.4110   -0.4800 C   0  0  0  0  0  0  0  0  0  0  0  0
   -2.9460   -0.5270   -1.4950 C   0  0  0  0  0  0  0  0  0  0  0  0
   -1.5410   -0.7710   -2.0170 C   0  0  0  0  0  0  0  0  0  0  0  0
   -0.5120   -0.0430   -1.4230 N   0  0  0  0  0  0  0  0  0  0  0  0
    0.8680   -0.2910   -1.8430 C   0  0  0  0  0  0  0  0  0  0  0  0
    0.9640   -1.3050   -2.2460 H   0  0  0  0  0  0  0  0  0  0  0  0
    1.0800    0.4100   -2.6590 H   0  0  0  0  0  0  0  0  0  0  0  0
    1.8630   -0.0820   -0.6970 C   0  0  0  0  0  0  0  0  0  0  0  0
    2.8860   -0.2290   -1.0590 H   0  0  0  0  0  0  0  0  0  0  0  0
    1.6700   -0.8170    0.0930 H   0  0  0  0  0  0  0  0  0  0  0  0
    1.7410    1.2480   -0.0800 N   0  0  0  0  0  0  0  0  0  0  0  0
    0.4630    1.9420   -0.2590 C   0  0  0  0  0  0  0  0  0  0  0  0
    0.2920    2.6360    0.5710 H   0  0  0  0  0  0  0  0  0  0  0  0
    0.5580    2.5400   -1.1730 H   0  0  0  0  0  0  0  0  0  0  0  0
   -0.7200    0.9760   -0.3860 C   0  0  0  0  0  0  0  0  0  0  0  0
   -1.6360    1.5370   -0.5930 H   0  0  0  0  0  0  0  0  0  0  0  0
   -0.8650    0.4360    0.5570 H   0  0  0  0  0  0  0  0  0  0  0  0
    2.7520    1.8970    0.6270 C   0  0  0  0  0  0  0  0  0  0  0  0
    3.9950    1.1550    0.9330 C   0  0  0  0  0  0  0  0  0  0  0  0
    3.9570    0.0090    1.7330 C   0  0  0  0  0  0  0  0  0  0  0  0
    3.0120   -0.3510    2.1300 H   0  0  0  0  0  0  0  0  0  0  0  0
    5.1480   -0.6530    2.0250 C   0  0  0  0  0  0  0  0  0  0  0  0
    6.3670   -0.1730    1.5400 C   0  0  0  0  0  0  0  0  0  0  0  0
    7.2970   -0.6880    1.7690 H   0  0  0  0  0  0  0  0  0  0  0  0
    6.3980    0.9860    0.7620 C   0  0  0  0  0  0  0  0  0  0  0  0
    7.3470    1.3690    0.3950 H   0  0  0  0  0  0  0  0  0  0  0  0
    5.2130    1.6580    0.4620 C   0  0  0  0  0  0  0  0  0  0  0  0
    5.2390    2.5670   -0.1330 H   0  0  0  0  0  0  0  0  0  0  0  0
   -3.5530    0.4330   -1.9630 O   0  0  0  0  0  0  0  0  0  0  0  0
   -1.4040   -1.6030   -2.9070 O   0  0  0  0  0  0  0  0  0  0  0  0
    2.6830    3.0600    1.0140 O   0  0  0  0  0  0  0  0  0  0  0  0
    5.1120   -2.2130    3.0920 Br  0  0  0  0  0  0  0  0  0  0  0  0
  1  2  1  0  0  0  0
  1  3  1  0  0  0  0
  1  9  2  0  0  0  0
  3  4  1  0  0  0  0
  3  5  2  0  0  0  0
  5  6  1  0  0  0  0
  5  7  1  0  0  0  0
  7  8  2  0  0  0  0
  7 11  1  0  0  0  0
  8  9  1  0  0  0  0
  8 15  1  0  0  0  0
  9 10  1  0  0  0  0
 11 12  1  0  0  0  0
 11 13  1  0  0  0  0
 13 14  1  0  0  0  0
 13 15  2  0  0  0  0
 15 16  1  0  0  0  0
 16 17  1  0  0  0  0
 16 43  2  0  0  0  0
 17 18  1  0  0  0  0
 17 44  2  0  0  0  0
 18 19  1  0  0  0  0
 18 29  1  0  0  0  0
 19 20  1  0  0  0  0
 19 21  1  0  0  0  0
 19 22  1  0  0  0  0
 22 23  1  0  0  0  0
 22 24  1  0  0  0  0
 22 25  1  0  0  0  0
 25 26  1  0  0  0  0
 25 32  1  0  0  0  0
 26 27  1  0  0  0  0
 26 28  1  0  0  0  0
 26 29  1  0  0  0  0
 29 30  1  0  0  0  0
 29 31  1  0  0  0  0
 32 33  1  0  0  0  0
 32 45  2  0  0  0  0
 33 34  1  0  0  0  0
 33 41  2  0  0  0  0
 34 35  1  0  0  0  0
 34 36  2  0  0  0  0
 36 37  1  0  0  0  0
 36 46  1  0  0  0  0
 37 38  1  0  0  0  0
 37 39  2  0  0  0  0
 39 40  1  0  0  0  0
 39 41  1  0  0  0  0
 41 42  1  0  0  0  0
M  END
>  <Activity>
5.1739

>  <AM1_dipole>
4.27531

>  <AM1_E>
-112297

>  <AM1_Eele>
-822930

>  <AM1_HF>
8.35315

>  <AM1_HOMO>
-8.88499

>  <AM1_IP>
8.88499

>  <AM1_LUMO>
-0.50363

>  <diameter>
15

>  <petitjean>
0.466667

>  <petitjeanSC>
0.875

>  <radius>
8

>  <VDistEq>
3.68917

>  <VDistMa>
9.28967

>  <weinerPath>
2243

>  <weinerPol>
46

>  <BCUT_PEOE_0>
-2.71185

>  <BCUT_PEOE_1>
-0.639435

>  <BCUT_PEOE_2>
0.655415

>  <BCUT_PEOE_3>
2.65028

>  <BCUT_SLOGP_0>
-2.86

>  <BCUT_SLOGP_1>
-0.493884

>  <BCUT_SLOGP_2>
0.72394

>  <BCUT_SLOGP_3>
2.50405

>  <BCUT_SMR_0>
-2.43202

>  <BCUT_SMR_1>
-0.433194

>  <BCUT_SMR_2>
0.826285

>  <BCUT_SMR_3>
2.92031

>  <GCUT_PEOE_0>
-0.860602

>  <GCUT_PEOE_1>
-0.403775

>  <GCUT_PEOE_2>
0.0732566

>  <GCUT_PEOE_3>
2.64886

>  <GCUT_SLOGP_0>
-0.976484

>  <GCUT_SLOGP_1>
-0.335835

>  <GCUT_SLOGP_2>
0.151356

>  <GCUT_SLOGP_3>
2.63696

>  <GCUT_SMR_0>
-0.508898

>  <GCUT_SMR_1>
-0.200526

>  <GCUT_SMR_2>
0.241832

>  <GCUT_SMR_3>
2.92473

>  <a_aro>
15

>  <a_count>
46

>  <a_IC>
77.2768

>  <a_ICM>
1.67993

>  <a_nH>
18

>  <b_1rotN>
5

>  <b_1rotR>
0.16129

>  <b_ar>
16

>  <b_count>
49

>  <b_double>
3

>  <b_rotN>
5

>  <b_rotR>
0.16129

>  <b_single>
30

>  <b_triple>
0

>  <chi0v>
16.6077

>  <chi0v_C>
12.0246

>  <chi1v>
9.78255

>  <chi1v_C>
5.93739

>  <chiral>
0

>  <chiral_u>
0

>  <nmol>
1

>  <reactive>
0

>  <rings>
4

>  <Weight>
440.297

>  <a_heavy>
28

>  <a_nB>
0

>  <a_nBr>
1

>  <a_nC>
21

>  <a_nCl>
0

>  <a_nF>
0

>  <a_nI>
0

>  <a_nN>
3

>  <a_nO>
3

>  <a_nP>
0

>  <a_nS>
0

>  <b_heavy>
31

>  <chi0>
19.673

>  <chi0_C>
13.8112

>  <chi1>
13.5417

>  <chi1_C>
8.0244

>  <FCharge>
0

>  <VAdjEq>
0.398935

>  <VAdjMa>
5.9542

>  <zagreb>
150

>  <balabanJ>
1.27183

>  <PEOE_PC+>
2.29309

>  <PEOE_PC->
-2.29309

>  <PEOE_RPC+>
0.128691

>  <PEOE_RPC->
0.156969

>  <PEOE_VSA+0>
82.8841

>  <PEOE_VSA+1>
74.7201

>  <PEOE_VSA+2>
0

>  <PEOE_VSA+3>
8.61901

>  <PEOE_VSA+4>
0

>  <PEOE_VSA+5>
34.3576

>  <PEOE_VSA+6>
0

>  <PEOE_VSA-0>
49.0196

>  <PEOE_VSA-1>
92.6445

>  <PEOE_VSA-2>
0

>  <PEOE_VSA-3>
0

>  <PEOE_VSA-4>
0

>  <PEOE_VSA-5>
40.7008

>  <PEOE_VSA-6>
0.136891

>  <PEOE_VSA_FHYD>
0.80371

>  <PEOE_VSA_FNEG>
0.476403

>  <PEOE_VSA_FPNEG>
0.106603

>  <PEOE_VSA_FPOL>
0.19629

>  <PEOE_VSA_FPOS>
0.523597

>  <PEOE_VSA_FPPOS>
0.0896872

>  <PEOE_VSA_HYD>
307.887

>  <PEOE_VSA_NEG>
182.502

>  <PEOE_VSA_PNEG>
40.8377

>  <PEOE_VSA_POL>
75.1952

>  <PEOE_VSA_POS>
200.581

>  <PEOE_VSA_PPOS>
34.3576

>  <PC+>
4.88

>  <PC->
-4.881

>  <Q_PC+>
4.88

>  <Q_PC->
-4.881

>  <Q_RPC+>
0.134426

>  <Q_RPC->
0.135218

>  <Q_VSA_FHYD>
0.600106

>  <Q_VSA_FNEG>
0.543013

>  <Q_VSA_FPNEG>
0.149959

>  <Q_VSA_FPOL>
0.399894

>  <Q_VSA_FPOS>
0.456987

>  <Q_VSA_FPPOS>
0.249935

>  <Q_VSA_HYD>
229.89

>  <Q_VSA_NEG>
208.019

>  <Q_VSA_PNEG>
57.4467

>  <Q_VSA_POL>
153.193

>  <Q_VSA_POS>
175.064

>  <Q_VSA_PPOS>
95.7459

>  <RPC+>
0.134426

>  <RPC->
0.135218

>  <lip_acc>
6

>  <lip_don>
1

>  <lip_druglike>
1

>  <lip_violation>
0

>  <opr_brigid>
22

>  <opr_leadlike>
1

>  <opr_nring>
4

>  <opr_nrot>
5

>  <opr_violation>
0

>  <E>
91.3373

>  <E_ang>
6.84087

>  <E_ele>
28.6521

>  <E_nb>
74.2737

>  <E_oop>
0.0466706

>  <E_sol>
-20.9636

>  <E_stb>
0.33119

>  <E_str>
5.80023

>  <E_strain>
0.00393385

>  <E_tor>
4.04471

>  <E_vdw>
45.6215

>  <E_rele>
0

>  <E_rnb>
-5.68434e-014

>  <E_rsol>
-5.68434e-014

>  <E_rvdw>
0

>  <Kier1>
21.2404

>  <Kier2>
9.42769

>  <Kier3>
4.69444

>  <KierA1>
16.0228

>  <KierA2>
7.03228

>  <KierA3>
3.4737

>  <KierFlex>
4.02418

>  <logS>
-5.11998

>  <MNDO_dipole>
4.82673

>  <MNDO_E>
-112380

>  <MNDO_Eele>
-814760

>  <MNDO_HF>
-12.1442

>  <MNDO_HOMO>
-8.84664

>  <MNDO_IP>
8.84664

>  <MNDO_LUMO>
-0.57496

>  <apol>
57.7183

>  <bpol>
28.4617

>  <mr>
11.0301

>  <dipole>
1.20664

>  <dipoleX>
0.609336

>  <dipoleY>
-0.847842

>  <dipoleZ>
0.60485

>  <pmi>
10539.6

>  <pmiX>
8128.3

>  <pmiY>
1147.33

>  <pmiZ>
1264.01

>  <rgyr>
4.8926

>  <a_acc>
3

>  <a_acid>
0

>  <a_base>
0

>  <a_don>
1

>  <a_hyd>
19

>  <vsa_acc>
40.7008

>  <vsa_acid>
0

>  <vsa_base>
0

>  <vsa_don>
5.68258

>  <vsa_hyd>
287.168

>  <vsa_other>
34.3576

>  <vsa_pol>
46.3833

>  <PM3_dipole>
5.08586

>  <PM3_E>
-103437

>  <PM3_Eele>
-807418

>  <PM3_HF>
-23.0286

>  <PM3_HOMO>
-8.84882

>  <PM3_IP>
8.84882

>  <PM3_LUMO>
-0.57372

>  <SlogP>
3.0977

>  <SlogP_VSA0>
0

>  <SlogP_VSA1>
22.4538

>  <SlogP_VSA2>
40.6477

>  <SlogP_VSA3>
73.7583

>  <SlogP_VSA4>
54.0956

>  <SlogP_VSA5>
3.0551

>  <SlogP_VSA6>
0

>  <SlogP_VSA7>
163.077

>  <SlogP_VSA8>
0

>  <SlogP_VSA9>
45.9541

>  <SMR>
10.9255

>  <SMR_VSA0>
71.5866

>  <SMR_VSA1>
6.24863

>  <SMR_VSA2>
19.8406

>  <SMR_VSA3>
6.37115

>  <SMR_VSA4>
4.7171

>  <SMR_VSA5>
158.36

>  <SMR_VSA6>
89.9635

>  <SMR_VSA7>
45.9541

>  <ASA>
653.334

>  <ASA+>
229.948

>  <ASA->
318.348

>  <ASA_H>
496.171

>  <ASA_P>
157.163

>  <CASA+>
1122.15

>  <CASA->
1553.86

>  <DASA>
88.3998

>  <DCASA>
431.71

>  <FASA+>
0.351961

>  <FASA->
0.487267

>  <FASA_H>
0.759445

>  <FASA_P>
0.240555

>  <FCASA+>
1.71757

>  <FCASA->
2.37835

>  <VSA>
403.797

>  <TPSA>
73.48

>  <density>
0.855561

>  <vdw_area>
383.082

>  <vdw_vol>
514.63

>  <vsurf_A>
3.52604

>  <vsurf_CP>
0.16128

>  <vsurf_CW1>
2.65615

>  <vsurf_CW2>
2.11581

>  <vsurf_CW3>
1.27328

>  <vsurf_CW4>
0.512637

>  <vsurf_CW5>
0.20698

>  <vsurf_CW6>
0.0650022

>  <vsurf_CW7>
0.00316742

>  <vsurf_CW8>
0

>  <vsurf_D1>
989.375

>  <vsurf_D2>
586.5

>  <vsurf_D3>
433.375

>  <vsurf_D4>
369

>  <vsurf_D5>
317.75

>  <vsurf_D6>
263.625

>  <vsurf_D7>
158

>  <vsurf_D8>
94

>  <vsurf_DD12>
0.5

>  <vsurf_DD13>
1.11803

>  <vsurf_DD23>
0.707107

>  <vsurf_DW12>
5.24404

>  <vsurf_DW13>
5.59017

>  <vsurf_DW23>
0.5

>  <vsurf_EDmin1>
-2.77272

>  <vsurf_EDmin2>
-2.75015

>  <vsurf_EDmin3>
-2.66876

>  <vsurf_EWmin1>
-5.3286

>  <vsurf_EWmin2>
-5.28135

>  <vsurf_EWmin3>
-5.27154

>  <vsurf_G>
1.35697

>  <vsurf_HB1>
325.375

>  <vsurf_HB2>
356.5

>  <vsurf_HB3>
295.5

>  <vsurf_HB4>
102

>  <vsurf_HB5>
31.375

>  <vsurf_HB6>
9.125

>  <vsurf_HB7>
1

>  <vsurf_HB8>
0

>  <vsurf_HL1>
0.0865301

>  <vsurf_HL2>
0.028794

>  <vsurf_ID1>
0.740835

>  <vsurf_ID2>
0.705412

>  <vsurf_ID3>
0.750193

>  <vsurf_ID4>
0.825729

>  <vsurf_ID5>
0.933071

>  <vsurf_ID6>
1.05348

>  <vsurf_ID7>
0.931869

>  <vsurf_ID8>
0.620559

>  <vsurf_IW1>
0.612858

>  <vsurf_IW2>
1.26448

>  <vsurf_IW3>
2.10567

>  <vsurf_IW4>
2.86096

>  <vsurf_IW5>
2.94047

>  <vsurf_IW6>
3.40395

>  <vsurf_IW7>
3.48023

>  <vsurf_IW8>
0

>  <vsurf_R>
1.45376

>  <vsurf_S>
597.244

>  <vsurf_V>
868.25

>  <vsurf_W1>
1455.13

>  <vsurf_W2>
829.25

>  <vsurf_W3>
389.5

>  <vsurf_W4>
118.75

>  <vsurf_W5>
37.5

>  <vsurf_W6>
10.625

>  <vsurf_W7>
1

>  <vsurf_W8>
0

>  <vsurf_Wp1>
1129.75

>  <vsurf_Wp2>
472.75

>  <vsurf_Wp3>
94

>  <vsurf_Wp4>
16.75

>  <vsurf_Wp5>
6.125

>  <vsurf_Wp6>
1.5

>  <vsurf_Wp7>
0

>  <vsurf_Wp8>
0

>  <dens>
1.18559

>  <glob>
0.0709007

>  <std_dim1>
4.42675

>  <std_dim2>
1.65026

>  <std_dim3>
1.17872

>  <vol>
371.375

>  <logP(o/w)>
2.918

$$$$
D6.cdx
  MOE2008           3D

 46 49  0  0  0  0  0  0  0  0999 V2000
   -6.9660   -4.0970   -0.2130 C   0  0  0  0  0  0  0  0  0  0  0  0
   -7.6580   -3.2690   -0.0840 H   0  0  0  0  0  0  0  0  0  0  0  0
   -7.3900   -5.2620   -0.8470 C   0  0  0  0  0  0  0  0  0  0  0  0
   -8.4130   -5.3340   -1.2080 H   0  0  0  0  0  0  0  0  0  0  0  0
   -6.5220   -6.3430   -1.0250 C   0  0  0  0  0  0  0  0  0  0  0  0
   -6.8590   -7.2500   -1.5180 H   0  0  0  0  0  0  0  0  0  0  0  0
   -5.2130   -6.2110   -0.5450 C   0  0  0  0  0  0  0  0  0  0  0  0
   -4.7550   -5.0580    0.0960 C   0  0  0  0  0  0  0  0  0  0  0  0
   -5.6540   -3.9820    0.2620 C   0  0  0  0  0  0  0  0  0  0  0  0
   -5.3350   -3.0680    0.7560 H   0  0  0  0  0  0  0  0  0  0  0  0
   -4.1650   -7.0990   -0.5810 N   0  0  0  0  0  0  0  0  0  0  0  0
   -4.2110   -8.0240   -0.9860 H   0  0  0  0  0  0  0  0  0  0  0  0
   -3.0580   -6.5500    0.0100 C   0  0  0  0  0  0  0  0  0  0  0  0
   -2.1390   -7.1190    0.0720 H   0  0  0  0  0  0  0  0  0  0  0  0
   -3.3830   -5.2790    0.4510 C   0  0  0  0  0  0  0  0  0  0  0  0
   -2.4820   -4.3630    1.1370 C   0  0  0  0  0  0  0  0  0  0  0  0
   -1.0550   -4.7840    1.4290 C   0  0  0  0  0  0  0  0  0  0  0  0
   -0.0640   -4.3070    0.5760 N   0  0  0  0  0  0  0  0  0  0  0  0
    1.3290   -4.6950    0.7940 C   0  0  0  0  0  0  0  0  0  0  0  0
    1.4340   -5.3000    1.7000 H   0  0  0  0  0  0  0  0  0  0  0  0
    1.6200   -5.3210   -0.0580 H   0  0  0  0  0  0  0  0  0  0  0  0
    2.2470   -3.4670    0.8780 C   0  0  0  0  0  0  0  0  0  0  0  0
    3.2840   -3.8070    0.9200 H   0  0  0  0  0  0  0  0  0  0  0  0
    2.0350   -2.8990    1.7910 H   0  0  0  0  0  0  0  0  0  0  0  0
    2.0200   -2.5510   -0.2540 N   0  0  0  0  0  0  0  0  0  0  0  0
    0.6170   -2.1780   -0.4750 C   0  0  0  0  0  0  0  0  0  0  0  0
    0.3170   -1.5640    0.3830 H   0  0  0  0  0  0  0  0  0  0  0  0
    0.5070   -1.5650   -1.3740 H   0  0  0  0  0  0  0  0  0  0  0  0
   -0.2830   -3.4150   -0.5710 C   0  0  0  0  0  0  0  0  0  0  0  0
   -0.0350   -3.9910   -1.4710 H   0  0  0  0  0  0  0  0  0  0  0  0
   -1.3280   -3.1080   -0.6550 H   0  0  0  0  0  0  0  0  0  0  0  0
    2.9980   -2.0370   -1.1000 C   0  0  0  0  0  0  0  0  0  0  0  0
    4.4230   -2.2520   -0.7620 C   0  0  0  0  0  0  0  0  0  0  0  0
    5.2410   -2.9190   -1.6820 C   0  0  0  0  0  0  0  0  0  0  0  0
    4.8270   -3.2940   -2.6140 H   0  0  0  0  0  0  0  0  0  0  0  0
    6.5950   -3.0960   -1.3950 C   0  0  0  0  0  0  0  0  0  0  0  0
    7.2470   -3.6130   -2.0920 H   0  0  0  0  0  0  0  0  0  0  0  0
    7.1150   -2.5950   -0.2040 C   0  0  0  0  0  0  0  0  0  0  0  0
    6.3090   -1.9130    0.7060 C   0  0  0  0  0  0  0  0  0  0  0  0
    6.7430   -1.5220    1.6210 H   0  0  0  0  0  0  0  0  0  0  0  0
    4.9550   -1.7310    0.4240 C   0  0  0  0  0  0  0  0  0  0  0  0
    4.3260   -1.1830    1.1200 H   0  0  0  0  0  0  0  0  0  0  0  0
   -2.8090   -3.2340    1.4970 O   0  0  0  0  0  0  0  0  0  0  0  0
   -0.8680   -5.5230    2.3890 O   0  0  0  0  0  0  0  0  0  0  0  0
    2.7630   -1.4050   -2.1250 O   0  0  0  0  0  0  0  0  0  0  0  0
    8.4160   -2.7640    0.0680 F   0  0  0  0  0  0  0  0  0  0  0  0
  1  2  1  0  0  0  0
  1  3  1  0  0  0  0
  1  9  2  0  0  0  0
  3  4  1  0  0  0  0
  3  5  2  0  0  0  0
  5  6  1  0  0  0  0
  5  7  1  0  0  0  0
  7  8  2  0  0  0  0
  7 11  1  0  0  0  0
  8  9  1  0  0  0  0
  8 15  1  0  0  0  0
  9 10  1  0  0  0  0
 11 12  1  0  0  0  0
 11 13  1  0  0  0  0
 13 14  1  0  0  0  0
 13 15  2  0  0  0  0
 15 16  1  0  0  0  0
 16 17  1  0  0  0  0
 16 43  2  0  0  0  0
 17 18  1  0  0  0  0
 17 44  2  0  0  0  0
 18 19  1  0  0  0  0
 18 29  1  0  0  0  0
 19 20  1  0  0  0  0
 19 21  1  0  0  0  0
 19 22  1  0  0  0  0
 22 23  1  0  0  0  0
 22 24  1  0  0  0  0
 22 25  1  0  0  0  0
 25 26  1  0  0  0  0
 25 32  1  0  0  0  0
 26 27  1  0  0  0  0
 26 28  1  0  0  0  0
 26 29  1  0  0  0  0
 29 30  1  0  0  0  0
 29 31  1  0  0  0  0
 32 33  1  0  0  0  0
 32 45  2  0  0  0  0
 33 34  1  0  0  0  0
 33 41  2  0  0  0  0
 34 35  1  0  0  0  0
 34 36  2  0  0  0  0
 36 37  1  0  0  0  0
 36 38  1  0  0  0  0
 38 39  2  0  0  0  0
 38 46  1  0  0  0  0
 39 40  1  0  0  0  0
 39 41  1  0  0  0  0
 41 42  1  0  0  0  0
M  END
>  <Activity>
5.0501

>  <AM1_dipole>
4.4576

>  <AM1_E>
-115338

>  <AM1_Eele>
-823779

>  <AM1_HF>
-43.1614

>  <AM1_HOMO>
-8.91147

>  <AM1_IP>
8.91147

>  <AM1_LUMO>
-0.51456

>  <diameter>
16

>  <petitjean>
0.5

>  <petitjeanSC>
1

>  <radius>
8

>  <VDistEq>
3.71892

>  <VDistMa>
9.28576

>  <weinerPath>
2264

>  <weinerPol>
46

>  <BCUT_PEOE_0>
-2.71185

>  <BCUT_PEOE_1>
-0.639883

>  <BCUT_PEOE_2>
0.655377

>  <BCUT_PEOE_3>
2.65028

>  <BCUT_SLOGP_0>
-2.86001

>  <BCUT_SLOGP_1>
-0.53808

>  <BCUT_SLOGP_2>
0.739298

>  <BCUT_SLOGP_3>
2.50327

>  <BCUT_SMR_0>
-2.43203

>  <BCUT_SMR_1>
-0.433377

>  <BCUT_SMR_2>
0.826244

>  <BCUT_SMR_3>
2.92023

>  <GCUT_PEOE_0>
-0.860602

>  <GCUT_PEOE_1>
-0.422728

>  <GCUT_PEOE_2>
0.0838535

>  <GCUT_PEOE_3>
2.64996

>  <GCUT_SLOGP_0>
-0.976484

>  <GCUT_SLOGP_1>
-0.335835

>  <GCUT_SLOGP_2>
0.164454

>  <GCUT_SLOGP_3>
2.62946

>  <GCUT_SMR_0>
-0.508914

>  <GCUT_SMR_1>
-0.216057

>  <GCUT_SMR_2>
0.193051

>  <GCUT_SMR_3>
2.92015

>  <a_aro>
15

>  <a_count>
46

>  <a_IC>
77.2768

>  <a_ICM>
1.67993

>  <a_nH>
18

>  <b_1rotN>
5

>  <b_1rotR>
0.16129

>  <b_ar>
16

>  <b_count>
49

>  <b_double>
3

>  <b_rotN>
5

>  <b_rotR>
0.16129

>  <b_single>
30

>  <b_triple>
0

>  <chi0v>
15.0217

>  <chi0v_C>
12.0246

>  <chi1v>
8.98955

>  <chi1v_C>
5.93739

>  <chiral>
0

>  <chiral_u>
0

>  <nmol>
1

>  <reactive>
0

>  <rings>
4

>  <Weight>
379.391

>  <a_heavy>
28

>  <a_nB>
0

>  <a_nBr>
0

>  <a_nC>
21

>  <a_nCl>
0

>  <a_nF>
1

>  <a_nI>
0

>  <a_nN>
3

>  <a_nO>
3

>  <a_nP>
0

>  <a_nS>
0

>  <b_heavy>
31

>  <chi0>
19.673

>  <chi0_C>
13.8112

>  <chi1>
13.5417

>  <chi1_C>
8.0244

>  <FCharge>
0

>  <VAdjEq>
0.398935

>  <VAdjMa>
5.9542

>  <zagreb>
150

>  <balabanJ>
1.26157

>  <PEOE_PC+>
2.4007

>  <PEOE_PC->
-2.4007

>  <PEOE_RPC+>
0.122922

>  <PEOE_RPC->
0.149934

>  <PEOE_VSA+0>
80.6318

>  <PEOE_VSA+1>
74.7201

>  <PEOE_VSA+2>
9.02085

>  <PEOE_VSA+3>
8.61901

>  <PEOE_VSA+4>
0

>  <PEOE_VSA+5>
34.3576

>  <PEOE_VSA+6>
0

>  <PEOE_VSA-0>
61.2745

>  <PEOE_VSA-1>
36.7647

>  <PEOE_VSA-2>
0

>  <PEOE_VSA-3>
0

>  <PEOE_VSA-4>
11.9086

>  <PEOE_VSA-5>
40.7008

>  <PEOE_VSA-6>
0.136891

>  <PEOE_VSA_FHYD>
0.756785

>  <PEOE_VSA_FNEG>
0.42103

>  <PEOE_VSA_FPNEG>
0.14728

>  <PEOE_VSA_FPOL>
0.243215

>  <PEOE_VSA_FPOS>
0.57897

>  <PEOE_VSA_FPPOS>
0.0959347

>  <PEOE_VSA_HYD>
271.031

>  <PEOE_VSA_NEG>
150.786

>  <PEOE_VSA_PNEG>
52.7463

>  <PEOE_VSA_POL>
87.1039

>  <PEOE_VSA_POS>
207.349

>  <PEOE_VSA_PPOS>
34.3576

>  <PC+>
4.959

>  <PC->
-4.96

>  <Q_PC+>
4.959

>  <Q_PC->
-4.96

>  <Q_RPC+>
0.132285

>  <Q_RPC->
0.133065

>  <Q_VSA_FHYD>
0.572249

>  <Q_VSA_FNEG>
0.49228

>  <Q_VSA_FPNEG>
0.160405

>  <Q_VSA_FPOL>
0.427751

>  <Q_VSA_FPOS>
0.50772

>  <Q_VSA_FPPOS>
0.267346

>  <Q_VSA_HYD>
204.942

>  <Q_VSA_NEG>
176.303

>  <Q_VSA_PNEG>
57.4467

>  <Q_VSA_POL>
153.193

>  <Q_VSA_POS>
181.832

>  <Q_VSA_PPOS>
95.7459

>  <RPC+>
0.132285

>  <RPC->
0.133065

>  <lip_acc>
6

>  <lip_don>
1

>  <lip_druglike>
1

>  <lip_violation>
0

>  <opr_brigid>
22

>  <opr_leadlike>
1

>  <opr_nring>
4

>  <opr_nrot>
5

>  <opr_violation>
0

>  <E>
91.2601

>  <E_ang>
8.04929

>  <E_ele>
30.3043

>  <E_nb>
75.3547

>  <E_oop>
0.0224061

>  <E_sol>
-20.4033

>  <E_stb>
0.296608

>  <E_str>
5.81355

>  <E_strain>
0.00458973

>  <E_tor>
1.72358

>  <E_vdw>
45.0504

>  <E_rele>
0

>  <E_rnb>
0

>  <E_rsol>
0

>  <E_rvdw>
0

>  <Kier1>
21.2404

>  <Kier2>
9.42769

>  <Kier3>
4.69444

>  <KierA1>
14.4569

>  <KierA2>
6.31723

>  <KierA3>
3.11071

>  <KierFlex>
3.26171

>  <logS>
-4.32457

>  <MNDO_dipole>
4.85471

>  <MNDO_E>
-115419

>  <MNDO_Eele>
-814484

>  <MNDO_HF>
-61.7372

>  <MNDO_HOMO>
-8.86623

>  <MNDO_IP>
8.86623

>  <MNDO_LUMO>
-0.62203

>  <apol>
55.2253

>  <bpol>
28.3747

>  <mr>
10.3492

>  <dipole>
0.999554

>  <dipoleX>
0.0324785

>  <dipoleY>
-0.928424

>  <dipoleZ>
-0.368894

>  <pmi>
9422.1

>  <pmiX>
8023.77

>  <pmiY>
976.807

>  <pmiZ>
421.529

>  <rgyr>
4.98345

>  <a_acc>
3

>  <a_acid>
0

>  <a_base>
0

>  <a_don>
1

>  <a_hyd>
19

>  <vsa_acc>
40.7008

>  <vsa_acid>
0

>  <vsa_base>
0

>  <vsa_don>
5.68258

>  <vsa_hyd>
262.22

>  <vsa_other>
34.3576

>  <vsa_pol>
46.3833

>  <PM3_dipole>
4.69665

>  <PM3_E>
-105444

>  <PM3_Eele>
-813048

>  <PM3_HF>
-78.327

>  <PM3_HOMO>
-8.85705

>  <PM3_IP>
8.85705

>  <PM3_LUMO>
-0.58867

>  <SlogP>
2.4743

>  <SlogP_VSA0>
0

>  <SlogP_VSA1>
22.4538

>  <SlogP_VSA2>
49.7688

>  <SlogP_VSA3>
73.7583

>  <SlogP_VSA4>
54.0956

>  <SlogP_VSA5>
0

>  <SlogP_VSA6>
0

>  <SlogP_VSA7>
163.077

>  <SlogP_VSA8>
0

>  <SlogP_VSA9>
14.9601

>  <SMR>
10.1513

>  <SMR_VSA0>
71.5866

>  <SMR_VSA1>
21.2087

>  <SMR_VSA2>
25.9065

>  <SMR_VSA3>
6.37115

>  <SMR_VSA4>
4.7171

>  <SMR_VSA5>
158.36

>  <SMR_VSA6>
89.9635

>  <SMR_VSA7>
0

>  <ASA>
620.607

>  <ASA+>
249.617

>  <ASA->
265.069

>  <ASA_H>
467.027

>  <ASA_P>
153.58

>  <CASA+>
1237.85

>  <CASA->
1314.74

>  <DASA>
15.4521

>  <DCASA>
76.8919

>  <FASA+>
0.402215

>  <FASA->
0.427113

>  <FASA_H>
0.752533

>  <FASA_P>
0.247467

>  <FCASA+>
1.99458

>  <FCASA->
2.11848

>  <VSA>
380.942

>  <TPSA>
73.48

>  <density>
0.776193

>  <vdw_area>
358.135

>  <vdw_vol>
488.784

>  <vsurf_A>
1.63032

>  <vsurf_CP>
0.131874

>  <vsurf_CW1>
2.70286

>  <vsurf_CW2>
2.30791

>  <vsurf_CW3>
1.5279

>  <vsurf_CW4>
0.593582

>  <vsurf_CW5>
0.205109

>  <vsurf_CW6>
0.0575121

>  <vsurf_CW7>
0.00593902

>  <vsurf_CW8>
0

>  <vsurf_D1>
828.875

>  <vsurf_D2>
485.75

>  <vsurf_D3>
359.75

>  <vsurf_D4>
298

>  <vsurf_D5>
253.5

>  <vsurf_D6>
202.125

>  <vsurf_D7>
124

>  <vsurf_D8>
68.125

>  <vsurf_DD12>
0.5

>  <vsurf_DD13>
5.24404

>  <vsurf_DD23>
4.7697

>  <vsurf_DW12>
0.707107

>  <vsurf_DW13>
0.707107

>  <vsurf_DW23>
1.22474

>  <vsurf_EDmin1>
-2.70204

>  <vsurf_EDmin2>
-2.58674

>  <vsurf_EDmin3>
-2.5317

>  <vsurf_EWmin1>
-5.44142

>  <vsurf_EWmin2>
-5.34563

>  <vsurf_EWmin3>
-5.30879

>  <vsurf_G>
1.3517

>  <vsurf_HB1>
348.625

>  <vsurf_HB2>
425.5

>  <vsurf_HB3>
358.125

>  <vsurf_HB4>
109.75

>  <vsurf_HB5>
30.25

>  <vsurf_HB6>
7.25

>  <vsurf_HB7>
1.5

>  <vsurf_HB8>
0

>  <vsurf_HL1>
0.102849

>  <vsurf_HL2>
0.0297819

>  <vsurf_ID1>
1.02517

>  <vsurf_ID2>
1.06326

>  <vsurf_ID3>
1.20509

>  <vsurf_ID4>
1.40271

>  <vsurf_ID5>
1.68522

>  <vsurf_ID6>
1.64084

>  <vsurf_ID7>
0.969017

>  <vsurf_ID8>
1.32542

>  <vsurf_IW1>
0.15883

>  <vsurf_IW2>
0.697804

>  <vsurf_IW3>
0.843395

>  <vsurf_IW4>
0.85774

>  <vsurf_IW5>
1.12758

>  <vsurf_IW6>
1.58071

>  <vsurf_IW7>
2.43148

>  <vsurf_IW8>
0

>  <vsurf_R>
1.42867

>  <vsurf_S>
570.11

>  <vsurf_V>
814.5

>  <vsurf_W1>
1401.13

>  <vsurf_W2>
875.25

>  <vsurf_W3>
433

>  <vsurf_W4>
126.875

>  <vsurf_W5>
37

>  <vsurf_W6>
8.875

>  <vsurf_W7>
1.5

>  <vsurf_W8>
0

>  <vsurf_Wp1>
1052.5

>  <vsurf_Wp2>
449.75

>  <vsurf_Wp3>
74.875

>  <vsurf_Wp4>
17.125

>  <vsurf_Wp5>
6.75

>  <vsurf_Wp6>
1.625

>  <vsurf_Wp7>
0

>  <vsurf_Wp8>
0

>  <dens>
1.09256

>  <glob>
0.0574117

>  <std_dim1>
4.74145

>  <std_dim2>
1.33417

>  <std_dim3>
1.13609

>  <vol>
347.25

>  <logP(o/w)>
2.236

$$$$
D6.cdx
  MOE2008           3D

 46 49  0  0  0  0  0  0  0  0999 V2000
   -6.6790   -7.3110    0.0110 C   0  0  0  0  0  0  0  0  0  0  0  0
   -7.3680   -6.5060   -0.2350 H   0  0  0  0  0  0  0  0  0  0  0  0
   -7.1270   -8.4060    0.7450 C   0  0  0  0  0  0  0  0  0  0  0  0
   -8.1640   -8.4460    1.0680 H   0  0  0  0  0  0  0  0  0  0  0  0
   -6.2640   -9.4550    1.0730 C   0  0  0  0  0  0  0  0  0  0  0  0
   -6.6200  -10.3070    1.6440 H   0  0  0  0  0  0  0  0  0  0  0  0
   -4.9370   -9.3650    0.6380 C   0  0  0  0  0  0  0  0  0  0  0  0
   -4.4540   -8.2820   -0.1010 C   0  0  0  0  0  0  0  0  0  0  0  0
   -5.3490   -7.2370   -0.4170 C   0  0  0  0  0  0  0  0  0  0  0  0
   -5.0110   -6.3780   -0.9910 H   0  0  0  0  0  0  0  0  0  0  0  0
   -3.8880  -10.2370    0.8120 N   0  0  0  0  0  0  0  0  0  0  0  0
   -3.9490  -11.1140    1.3100 H   0  0  0  0  0  0  0  0  0  0  0  0
   -2.7590   -9.7450    0.2130 C   0  0  0  0  0  0  0  0  0  0  0  0
   -1.8370  -10.3110    0.2510 H   0  0  0  0  0  0  0  0  0  0  0  0
   -3.0680   -8.5300   -0.3720 C   0  0  0  0  0  0  0  0  0  0  0  0
   -2.1400   -7.6850   -1.1130 C   0  0  0  0  0  0  0  0  0  0  0  0
   -0.7010   -8.1240   -1.2970 C   0  0  0  0  0  0  0  0  0  0  0  0
    0.2500   -7.5540   -0.4560 N   0  0  0  0  0  0  0  0  0  0  0  0
    1.6540   -7.9520   -0.5730 C   0  0  0  0  0  0  0  0  0  0  0  0
    1.9090   -8.4840    0.3510 H   0  0  0  0  0  0  0  0  0  0  0  0
    1.7990   -8.6470   -1.4060 H   0  0  0  0  0  0  0  0  0  0  0  0
    2.5710   -6.7330   -0.7440 C   0  0  0  0  0  0  0  0  0  0  0  0
    2.3980   -6.2640   -1.7200 H   0  0  0  0  0  0  0  0  0  0  0  0
    3.6090   -7.0670   -0.7040 H   0  0  0  0  0  0  0  0  0  0  0  0
    2.2920   -5.7060    0.2750 N   0  0  0  0  0  0  0  0  0  0  0  0
    0.8800   -5.3230    0.3960 C   0  0  0  0  0  0  0  0  0  0  0  0
    0.7280   -4.6210    1.2220 H   0  0  0  0  0  0  0  0  0  0  0  0
    0.6160   -4.8030   -0.5330 H   0  0  0  0  0  0  0  0  0  0  0  0
   -0.0210   -6.5500    0.5820 C   0  0  0  0  0  0  0  0  0  0  0  0
   -1.0690   -6.2440    0.5880 H   0  0  0  0  0  0  0  0  0  0  0  0
    0.1890   -7.0280    1.5460 H   0  0  0  0  0  0  0  0  0  0  0  0
    3.2310   -5.0990    1.1050 C   0  0  0  0  0  0  0  0  0  0  0  0
    4.6700   -5.3300    0.8490 C   0  0  0  0  0  0  0  0  0  0  0  0
    5.4570   -5.8780    1.8670 C   0  0  0  0  0  0  0  0  0  0  0  0
    5.0090   -6.1540    2.8180 H   0  0  0  0  0  0  0  0  0  0  0  0
    6.8250   -6.0630    1.6570 C   0  0  0  0  0  0  0  0  0  0  0  0
    7.4380   -6.4920    2.4460 H   0  0  0  0  0  0  0  0  0  0  0  0
    7.3960   -5.6880    0.4390 C   0  0  0  0  0  0  0  0  0  0  0  0
    6.6140   -5.1230   -0.5700 C   0  0  0  0  0  0  0  0  0  0  0  0
    7.0630   -4.8210   -1.5130 H   0  0  0  0  0  0  0  0  0  0  0  0
    5.2460   -4.9340   -0.3640 C   0  0  0  0  0  0  0  0  0  0  0  0
    4.6400   -4.4740   -1.1410 H   0  0  0  0  0  0  0  0  0  0  0  0
   -2.4550   -6.6030   -1.6030 O   0  0  0  0  0  0  0  0  0  0  0  0
   -0.4700   -8.9580   -2.1660 O   0  0  0  0  0  0  0  0  0  0  0  0
    2.9480   -4.3680    2.0500 O   0  0  0  0  0  0  0  0  0  0  0  0
    9.0840   -5.9140    0.1840 Cl  0  0  0  0  0  0  0  0  0  0  0  0
  1  2  1  0  0  0  0
  1  3  1  0  0  0  0
  1  9  2  0  0  0  0
  3  4  1  0  0  0  0
  3  5  2  0  0  0  0
  5  6  1  0  0  0  0
  5  7  1  0  0  0  0
  7  8  2  0  0  0  0
  7 11  1  0  0  0  0
  8  9  1  0  0  0  0
  8 15  1  0  0  0  0
  9 10  1  0  0  0  0
 11 12  1  0  0  0  0
 11 13  1  0  0  0  0
 13 14  1  0  0  0  0
 13 15  2  0  0  0  0
 15 16  1  0  0  0  0
 16 17  1  0  0  0  0
 16 43  2  0  0  0  0
 17 18  1  0  0  0  0
 17 44  2  0  0  0  0
 18 19  1  0  0  0  0
 18 29  1  0  0  0  0
 19 20  1  0  0  0  0
 19 21  1  0  0  0  0
 19 22  1  0  0  0  0
 22 23  1  0  0  0  0
 22 24  1  0  0  0  0
 22 25  1  0  0  0  0
 25 26  1  0  0  0  0
 25 32  1  0  0  0  0
 26 27  1  0  0  0  0
 26 28  1  0  0  0  0
 26 29  1  0  0  0  0
 29 30  1  0  0  0  0
 29 31  1  0  0  0  0
 32 33  1  0  0  0  0
 32 45  2  0  0  0  0
 33 34  1  0  0  0  0
 33 41  2  0  0  0  0
 34 35  1  0  0  0  0
 34 36  2  0  0  0  0
 36 37  1  0  0  0  0
 36 38  1  0  0  0  0
 38 39  2  0  0  0  0
 38 46  1  0  0  0  0
 39 40  1  0  0  0  0
 39 41  1  0  0  0  0
 41 42  1  0  0  0  0
M  END
>  <Activity>
4.1817

>  <AM1_dipole>
4.56294

>  <AM1_E>
-112771

>  <AM1_Eele>
-818264

>  <AM1_HF>
-5.07368

>  <AM1_HOMO>
-8.91325

>  <AM1_IP>
8.91325

>  <AM1_LUMO>
-0.51952

>  <diameter>
16

>  <petitjean>
0.5

>  <petitjeanSC>
1

>  <radius>
8

>  <VDistEq>
3.71892

>  <VDistMa>
9.28576

>  <weinerPath>
2264

>  <weinerPol>
46

>  <BCUT_PEOE_0>
-2.71187

>  <BCUT_PEOE_1>
-0.639582

>  <BCUT_PEOE_2>
0.655391

>  <BCUT_PEOE_3>
2.65025

>  <BCUT_SLOGP_0>
-2.86001

>  <BCUT_SLOGP_1>
-0.53808

>  <BCUT_SLOGP_2>
0.796869

>  <BCUT_SLOGP_3>
2.50386

>  <BCUT_SMR_0>
-2.43202

>  <BCUT_SMR_1>
-0.433232

>  <BCUT_SMR_2>
0.853066

>  <BCUT_SMR_3>
2.92027

>  <GCUT_PEOE_0>
-0.860602

>  <GCUT_PEOE_1>
-0.40382

>  <GCUT_PEOE_2>
0.0820309

>  <GCUT_PEOE_3>
2.64897

>  <GCUT_SLOGP_0>
-0.976484

>  <GCUT_SLOGP_1>
-0.335824

>  <GCUT_SLOGP_2>
0.164454

>  <GCUT_SLOGP_3>
2.63509

>  <GCUT_SMR_0>
-0.508899

>  <GCUT_SMR_1>
-0.216057

>  <GCUT_SMR_2>
0.241828

>  <GCUT_SMR_3>
2.9225

>  <a_aro>
15

>  <a_count>
46

>  <a_IC>
77.2768

>  <a_ICM>
1.67993

>  <a_nH>
18

>  <b_1rotN>
5

>  <b_1rotR>
0.16129

>  <b_ar>
16

>  <b_count>
49

>  <b_double>
3

>  <b_rotN>
5

>  <b_rotR>
0.16129

>  <b_single>
30

>  <b_triple>
0

>  <chi0v>
15.7776

>  <chi0v_C>
12.0246

>  <chi1v>
9.36751

>  <chi1v_C>
5.93739

>  <chiral>
0

>  <chiral_u>
0

>  <nmol>
1

>  <reactive>
0

>  <rings>
4

>  <Weight>
395.846

>  <a_heavy>
28

>  <a_nB>
0

>  <a_nBr>
0

>  <a_nC>
21

>  <a_nCl>
1

>  <a_nF>
0

>  <a_nI>
0

>  <a_nN>
3

>  <a_nO>
3

>  <a_nP>
0

>  <a_nS>
0

>  <b_heavy>
31

>  <chi0>
19.673

>  <chi0_C>
13.8112

>  <chi1>
13.5417

>  <chi1_C>
8.0244

>  <FCharge>
0

>  <VAdjEq>
0.398935

>  <VAdjMa>
5.9542

>  <zagreb>
150

>  <balabanJ>
1.26157

>  <PEOE_PC+>
2.31529

>  <PEOE_PC->
-2.31529

>  <PEOE_RPC+>
0.127457

>  <PEOE_RPC->
0.155465

>  <PEOE_VSA+0>
85.1516

>  <PEOE_VSA+1>
74.7201

>  <PEOE_VSA+2>
0

>  <PEOE_VSA+3>
8.61901

>  <PEOE_VSA+4>
0

>  <PEOE_VSA+5>
34.3576

>  <PEOE_VSA+6>
0

>  <PEOE_VSA-0>
61.2745

>  <PEOE_VSA-1>
66.3467

>  <PEOE_VSA-2>
0

>  <PEOE_VSA-3>
0

>  <PEOE_VSA-4>
0

>  <PEOE_VSA-5>
40.7008

>  <PEOE_VSA-6>
0.136891

>  <PEOE_VSA_FHYD>
0.797485

>  <PEOE_VSA_FNEG>
0.453691

>  <PEOE_VSA_FPNEG>
0.109983

>  <PEOE_VSA_FPOL>
0.202515

>  <PEOE_VSA_FPOS>
0.546309

>  <PEOE_VSA_FPPOS>
0.0925314

>  <PEOE_VSA_HYD>
296.112

>  <PEOE_VSA_NEG>
168.459

>  <PEOE_VSA_PNEG>
40.8377

>  <PEOE_VSA_POL>
75.1952

>  <PEOE_VSA_POS>
202.848

>  <PEOE_VSA_PPOS>
34.3576

>  <PC+>
4.946

>  <PC->
-4.947

>  <Q_PC+>
4.946

>  <Q_PC->
-4.947

>  <Q_RPC+>
0.132632

>  <Q_RPC->
0.133414

>  <Q_VSA_FHYD>
0.587424

>  <Q_VSA_FNEG>
0.522414

>  <Q_VSA_FPNEG>
0.154715

>  <Q_VSA_FPOL>
0.412576

>  <Q_VSA_FPOS>
0.477586

>  <Q_VSA_FPPOS>
0.257862

>  <Q_VSA_HYD>
218.115

>  <Q_VSA_NEG>
193.976

>  <Q_VSA_PNEG>
57.4467

>  <Q_VSA_POL>
153.193

>  <Q_VSA_POS>
177.331

>  <Q_VSA_PPOS>
95.7459

>  <RPC+>
0.132632

>  <RPC->
0.133414

>  <lip_acc>
6

>  <lip_don>
1

>  <lip_druglike>
1

>  <lip_violation>
0

>  <opr_brigid>
22

>  <opr_leadlike>
1

>  <opr_nring>
4

>  <opr_nrot>
5

>  <opr_violation>
0

>  <E>
92.3209

>  <E_ang>
8.0274

>  <E_ele>
30.5894

>  <E_nb>
76.3868

>  <E_oop>
0.0255066

>  <E_sol>
-20.4272

>  <E_stb>
0.27764

>  <E_str>
5.90979

>  <E_strain>
0.00440875

>  <E_tor>
1.69381

>  <E_vdw>
45.7973

>  <E_rele>
0

>  <E_rnb>
-1.42109e-014

>  <E_rsol>
-1.42109e-014

>  <E_rvdw>
0

>  <Kier1>
21.2404

>  <Kier2>
9.42769

>  <Kier3>
4.69444

>  <KierA1>
15.4057

>  <KierA2>
6.75023

>  <KierA3>
3.33044

>  <KierFlex>
3.71401

>  <logS>
-4.76388

>  <MNDO_dipole>
4.6737

>  <MNDO_E>
-112541

>  <MNDO_Eele>
-808615

>  <MNDO_HF>
-22.9229

>  <MNDO_HOMO>
-8.87067

>  <MNDO_IP>
8.87067

>  <MNDO_LUMO>
-0.64632

>  <apol>
56.8483

>  <bpol>
27.5917

>  <mr>
10.7803

>  <dipole>
0.995784

>  <dipoleX>
-0.0327839

>  <dipoleY>
-0.875843

>  <dipoleZ>
0.472661

>  <pmi>
10750.1

>  <pmiX>
9283.87

>  <pmiY>
1050.83

>  <pmiZ>
415.444

>  <rgyr>
5.21127

>  <a_acc>
3

>  <a_acid>
0

>  <a_base>
0

>  <a_don>
1

>  <a_hyd>
19

>  <vsa_acc>
40.7008

>  <vsa_acid>
0

>  <vsa_base>
0

>  <vsa_don>
5.68258

>  <vsa_hyd>
275.392

>  <vsa_other>
34.3576

>  <vsa_pol>
46.3833

>  <PM3_dipole>
4.73778

>  <PM3_E>
-102597

>  <PM3_Eele>
-807443

>  <PM3_HF>
-41.4039

>  <PM3_HOMO>
-8.83815

>  <PM3_IP>
8.83815

>  <PM3_LUMO>
-0.56709

>  <SlogP>
2.9886

>  <SlogP_VSA0>
0

>  <SlogP_VSA1>
22.4538

>  <SlogP_VSA2>
40.6477

>  <SlogP_VSA3>
73.7583

>  <SlogP_VSA4>
54.0956

>  <SlogP_VSA5>
0

>  <SlogP_VSA6>
3.50061

>  <SlogP_VSA7>
163.077

>  <SlogP_VSA8>
0

>  <SlogP_VSA9>
39.1486

>  <SMR>
10.6565

>  <SMR_VSA0>
71.5866

>  <SMR_VSA1>
6.24863

>  <SMR_VSA2>
16.7855

>  <SMR_VSA3>
9.87176

>  <SMR_VSA4>
4.7171

>  <SMR_VSA5>
158.36

>  <SMR_VSA6>
89.9635

>  <SMR_VSA7>
39.1486

>  <ASA>
647.46

>  <ASA+>
236.72

>  <ASA->
303.37

>  <ASA_H>
492.361

>  <ASA_P>
155.099

>  <CASA+>
1170.82

>  <CASA->
1500.77

>  <DASA>
66.6501

>  <DCASA>
329.955

>  <FASA+>
0.365614

>  <FASA->
0.468554

>  <FASA_H>
0.76045

>  <FASA_P>
0.23955

>  <FCASA+>
1.80832

>  <FCASA->
2.31794

>  <VSA>
393.72

>  <TPSA>
73.48

>  <density>
0.78917

>  <vdw_area>
371.307

>  <vdw_vol>
501.598

>  <vsurf_A>
1.6148

>  <vsurf_CP>
0.145156

>  <vsurf_CW1>
2.66314

>  <vsurf_CW2>
2.1293

>  <vsurf_CW3>
1.21997

>  <vsurf_CW4>
0.510173

>  <vsurf_CW5>
0.200554

>  <vsurf_CW6>
0.0569792

>  <vsurf_CW7>
0.00622466

>  <vsurf_CW8>
0

>  <vsurf_D1>
975

>  <vsurf_D2>
570.125

>  <vsurf_D3>
417.25

>  <vsurf_D4>
358.5

>  <vsurf_D5>
309

>  <vsurf_D6>
258.625

>  <vsurf_D7>
154.375

>  <vsurf_D8>
80.625

>  <vsurf_DD12>
0.5

>  <vsurf_DD13>
0.5

>  <vsurf_DD23>
1

>  <vsurf_DW12>
0.707107

>  <vsurf_DW13>
5.40833

>  <vsurf_DW23>
5.89491

>  <vsurf_EDmin1>
-2.65676

>  <vsurf_EDmin2>
-2.59439

>  <vsurf_EDmin3>
-2.58889

>  <vsurf_EWmin1>
-5.52578

>  <vsurf_EWmin2>
-5.41396

>  <vsurf_EWmin3>
-5.33681

>  <vsurf_G>
1.36033

>  <vsurf_HB1>
305.75

>  <vsurf_HB2>
343

>  <vsurf_HB3>
289.25

>  <vsurf_HB4>
98.25

>  <vsurf_HB5>
30.875

>  <vsurf_HB6>
7.375

>  <vsurf_HB7>
1.125

>  <vsurf_HB8>
0

>  <vsurf_HL1>
0.0895746

>  <vsurf_HL2>
0.0247559

>  <vsurf_ID1>
0.464389

>  <vsurf_ID2>
0.476415

>  <vsurf_ID3>
0.473737

>  <vsurf_ID4>
0.512347

>  <vsurf_ID5>
0.578819

>  <vsurf_ID6>
0.877941

>  <vsurf_ID7>
1.00879

>  <vsurf_ID8>
0.815745

>  <vsurf_IW1>
0.277626

>  <vsurf_IW2>
0.640684

>  <vsurf_IW3>
1.25967

>  <vsurf_IW4>
1.45791

>  <vsurf_IW5>
1.15652

>  <vsurf_IW6>
1.68291

>  <vsurf_IW7>
3.11276

>  <vsurf_IW8>
0

>  <vsurf_R>
1.44057

>  <vsurf_S>
590.823

>  <vsurf_V>
851.125

>  <vsurf_W1>
1420

>  <vsurf_W2>
808.875

>  <vsurf_W3>
366.5

>  <vsurf_W4>
115.125

>  <vsurf_W5>
37.375

>  <vsurf_W6>
8.875

>  <vsurf_W7>
1.125

>  <vsurf_W8>
0

>  <vsurf_Wp1>
1114.25

>  <vsurf_Wp2>
465.875

>  <vsurf_Wp3>
77.25

>  <vsurf_Wp4>
16.875

>  <vsurf_Wp5>
6.5

>  <vsurf_Wp6>
1.5

>  <vsurf_Wp7>
0

>  <vsurf_Wp8>
0

>  <dens>
1.09653

>  <glob>
0.0573072

>  <std_dim1>
4.75721

>  <std_dim2>
1.33381

>  <std_dim3>
1.13883

>  <vol>
361

>  <logP(o/w)>
2.675

$$$$
D6.cdx
  MOE2008           3D

 46 49  0  0  0  0  0  0  0  0999 V2000
   -6.8090  -10.7340    0.4140 C   0  0  0  0  0  0  0  0  0  0  0  0
   -7.5150  -10.1240    0.9710 H   0  0  0  0  0  0  0  0  0  0  0  0
   -7.2380  -11.4440   -0.7040 C   0  0  0  0  0  0  0  0  0  0  0  0
   -8.2790  -11.3800   -1.0130 H   0  0  0  0  0  0  0  0  0  0  0  0
   -6.3520  -12.2380   -1.4370 C   0  0  0  0  0  0  0  0  0  0  0  0
   -6.6920  -12.7910   -2.3070 H   0  0  0  0  0  0  0  0  0  0  0  0
   -5.0210  -12.2950   -1.0060 C   0  0  0  0  0  0  0  0  0  0  0  0
   -4.5560  -11.5980    0.1110 C   0  0  0  0  0  0  0  0  0  0  0  0
   -5.4740  -10.8020    0.8310 C   0  0  0  0  0  0  0  0  0  0  0  0
   -5.1520  -10.2460    1.7080 H   0  0  0  0  0  0  0  0  0  0  0  0
   -3.9540  -12.9890   -1.5230 N   0  0  0  0  0  0  0  0  0  0  0  0
   -4.0010  -13.5890   -2.3360 H   0  0  0  0  0  0  0  0  0  0  0  0
   -2.8290  -12.7520   -0.7790 C   0  0  0  0  0  0  0  0  0  0  0  0
   -1.8930  -13.2280   -1.0450 H   0  0  0  0  0  0  0  0  0  0  0  0
   -3.1600  -11.8960    0.2560 C   0  0  0  0  0  0  0  0  0  0  0  0
   -2.2500  -11.4090    1.2860 C   0  0  0  0  0  0  0  0  0  0  0  0
   -0.7970  -11.8520    1.2950 C   0  0  0  0  0  0  0  0  0  0  0  0
    0.1700  -10.8930    1.0000 N   0  0  0  0  0  0  0  0  0  0  0  0
    1.5880  -11.2460    1.1050 C   0  0  0  0  0  0  0  0  0  0  0  0
    1.9710  -10.7280    1.9930 H   0  0  0  0  0  0  0  0  0  0  0  0
    1.7150  -12.3200    1.2710 H   0  0  0  0  0  0  0  0  0  0  0  0
    2.3880  -10.8120   -0.1310 C   0  0  0  0  0  0  0  0  0  0  0  0
    2.0930  -11.4100   -1.0010 H   0  0  0  0  0  0  0  0  0  0  0  0
    3.4490  -10.9860    0.0600 H   0  0  0  0  0  0  0  0  0  0  0  0
    2.1190   -9.4060   -0.4690 N   0  0  0  0  0  0  0  0  0  0  0  0
    0.6980   -9.0750   -0.6080 C   0  0  0  0  0  0  0  0  0  0  0  0
    0.5540   -8.0070   -0.7980 H   0  0  0  0  0  0  0  0  0  0  0  0
    0.3350   -9.6170   -1.4890 H   0  0  0  0  0  0  0  0  0  0  0  0
   -0.1060   -9.4970    0.6280 C   0  0  0  0  0  0  0  0  0  0  0  0
   -1.1700   -9.3370    0.4380 H   0  0  0  0  0  0  0  0  0  0  0  0
    0.1780   -8.8820    1.4900 H   0  0  0  0  0  0  0  0  0  0  0  0
    3.0700   -8.4060   -0.6480 C   0  0  0  0  0  0  0  0  0  0  0  0
    4.5020   -8.7770   -0.6950 C   0  0  0  0  0  0  0  0  0  0  0  0
    4.9820   -9.6210   -1.7030 C   0  0  0  0  0  0  0  0  0  0  0  0
    4.3060  -10.0320   -2.4490 H   0  0  0  0  0  0  0  0  0  0  0  0
    6.3420   -9.9300   -1.7540 C   0  0  0  0  0  0  0  0  0  0  0  0
    6.7140  -10.5900   -2.5340 H   0  0  0  0  0  0  0  0  0  0  0  0
    7.2120   -9.3790   -0.8110 C   0  0  0  0  0  0  0  0  0  0  0  0
    6.7380   -8.5170    0.1800 C   0  0  0  0  0  0  0  0  0  0  0  0
    7.4170   -8.0770    0.9060 H   0  0  0  0  0  0  0  0  0  0  0  0
    5.3780   -8.2080    0.2350 C   0  0  0  0  0  0  0  0  0  0  0  0
    5.0060   -7.5260    0.9950 H   0  0  0  0  0  0  0  0  0  0  0  0
   -2.5980  -10.6380    2.1770 O   0  0  0  0  0  0  0  0  0  0  0  0
   -0.5660  -13.0250    1.5720 O   0  0  0  0  0  0  0  0  0  0  0  0
    2.8020   -7.2140   -0.7760 O   0  0  0  0  0  0  0  0  0  0  0  0
    9.0560   -9.7930   -0.8860 Br  0  0  0  0  0  0  0  0  0  0  0  0
  1  2  1  0  0  0  0
  1  3  1  0  0  0  0
  1  9  2  0  0  0  0
  3  4  1  0  0  0  0
  3  5  2  0  0  0  0
  5  6  1  0  0  0  0
  5  7  1  0  0  0  0
  7  8  2  0  0  0  0
  7 11  1  0  0  0  0
  8  9  1  0  0  0  0
  8 15  1  0  0  0  0
  9 10  1  0  0  0  0
 11 12  1  0  0  0  0
 11 13  1  0  0  0  0
 13 14  1  0  0  0  0
 13 15  2  0  0  0  0
 15 16  1  0  0  0  0
 16 17  1  0  0  0  0
 16 43  2  0  0  0  0
 17 18  1  0  0  0  0
 17 44  2  0  0  0  0
 18 19  1  0  0  0  0
 18 29  1  0  0  0  0
 19 20  1  0  0  0  0
 19 21  1  0  0  0  0
 19 22  1  0  0  0  0
 22 23  1  0  0  0  0
 22 24  1  0  0  0  0
 22 25  1  0  0  0  0
 25 26  1  0  0  0  0
 25 32  1  0  0  0  0
 26 27  1  0  0  0  0
 26 28  1  0  0  0  0
 26 29  1  0  0  0  0
 29 30  1  0  0  0  0
 29 31  1  0  0  0  0
 32 33  1  0  0  0  0
 32 45  2  0  0  0  0
 33 34  1  0  0  0  0
 33 41  2  0  0  0  0
 34 35  1  0  0  0  0
 34 36  2  0  0  0  0
 36 37  1  0  0  0  0
 36 38  1  0  0  0  0
 38 39  2  0  0  0  0
 38 46  1  0  0  0  0
 39 40  1  0  0  0  0
 39 41  1  0  0  0  0
 41 42  1  0  0  0  0
M  END
>  <Activity>
4.5228

>  <AM1_dipole>
5.06012

>  <AM1_E>
-112298

>  <AM1_Eele>
-817238

>  <AM1_HF>
7.72565

>  <AM1_HOMO>
-8.89341

>  <AM1_IP>
8.89341

>  <AM1_LUMO>
-0.55251

>  <diameter>
16

>  <petitjean>
0.5

>  <petitjeanSC>
1

>  <radius>
8

>  <VDistEq>
3.71892

>  <VDistMa>
9.28576

>  <weinerPath>
2264

>  <weinerPol>
46

>  <BCUT_PEOE_0>
-2.71187

>  <BCUT_PEOE_1>
-0.639538

>  <BCUT_PEOE_2>
0.655397

>  <BCUT_PEOE_3>
2.65024

>  <BCUT_SLOGP_0>
-2.86001

>  <BCUT_SLOGP_1>
-0.53808

>  <BCUT_SLOGP_2>
0.805915

>  <BCUT_SLOGP_3>
2.50387

>  <BCUT_SMR_0>
-2.43202

>  <BCUT_SMR_1>
-0.433219

>  <BCUT_SMR_2>
0.854311

>  <BCUT_SMR_3>
2.92028

>  <GCUT_PEOE_0>
-0.860602

>  <GCUT_PEOE_1>
-0.403782

>  <GCUT_PEOE_2>
0.081567

>  <GCUT_PEOE_3>
2.64872

>  <GCUT_SLOGP_0>
-0.976484

>  <GCUT_SLOGP_1>
-0.335826

>  <GCUT_SLOGP_2>
0.164454

>  <GCUT_SLOGP_3>
2.63583

>  <GCUT_SMR_0>
-0.508903

>  <GCUT_SMR_1>
-0.216057

>  <GCUT_SMR_2>
0.241829

>  <GCUT_SMR_3>
2.92387

>  <a_aro>
15

>  <a_count>
46

>  <a_IC>
77.2768

>  <a_ICM>
1.67993

>  <a_nH>
18

>  <b_1rotN>
5

>  <b_1rotR>
0.16129

>  <b_ar>
16

>  <b_count>
49

>  <b_double>
3

>  <b_rotN>
5

>  <b_rotR>
0.16129

>  <b_single>
30

>  <b_triple>
0

>  <chi0v>
16.6077

>  <chi0v_C>
12.0246

>  <chi1v>
9.78255

>  <chi1v_C>
5.93739

>  <chiral>
0

>  <chiral_u>
0

>  <nmol>
1

>  <reactive>
0

>  <rings>
4

>  <Weight>
440.297

>  <a_heavy>
28

>  <a_nB>
0

>  <a_nBr>
1

>  <a_nC>
21

>  <a_nCl>
0

>  <a_nF>
0

>  <a_nI>
0

>  <a_nN>
3

>  <a_nO>
3

>  <a_nP>
0

>  <a_nS>
0

>  <b_heavy>
31

>  <chi0>
19.673

>  <chi0_C>
13.8112

>  <chi1>
13.5417

>  <chi1_C>
8.0244

>  <FCharge>
0

>  <VAdjEq>
0.398935

>  <VAdjMa>
5.9542

>  <zagreb>
150

>  <balabanJ>
1.26157

>  <PEOE_PC+>
2.29145

>  <PEOE_PC->
-2.29145

>  <PEOE_RPC+>
0.128783

>  <PEOE_RPC->
0.157082

>  <PEOE_VSA+0>
82.8841

>  <PEOE_VSA+1>
74.7201

>  <PEOE_VSA+2>
0

>  <PEOE_VSA+3>
8.61901

>  <PEOE_VSA+4>
0

>  <PEOE_VSA+5>
34.3576

>  <PEOE_VSA+6>
0

>  <PEOE_VSA-0>
61.2745

>  <PEOE_VSA-1>
80.3896

>  <PEOE_VSA-2>
0

>  <PEOE_VSA-3>
0

>  <PEOE_VSA-4>
0

>  <PEOE_VSA-5>
40.7008

>  <PEOE_VSA-6>
0.136891

>  <PEOE_VSA_FHYD>
0.80371

>  <PEOE_VSA_FNEG>
0.476403

>  <PEOE_VSA_FPNEG>
0.106603

>  <PEOE_VSA_FPOL>
0.19629

>  <PEOE_VSA_FPOS>
0.523597

>  <PEOE_VSA_FPPOS>
0.0896872

>  <PEOE_VSA_HYD>
307.887

>  <PEOE_VSA_NEG>
182.502

>  <PEOE_VSA_PNEG>
40.8377

>  <PEOE_VSA_POL>
75.1952

>  <PEOE_VSA_POS>
200.581

>  <PEOE_VSA_PPOS>
34.3576

>  <PC+>
4.88

>  <PC->
-4.881

>  <Q_PC+>
4.88

>  <Q_PC->
-4.881

>  <Q_RPC+>
0.134426

>  <Q_RPC->
0.135218

>  <Q_VSA_FHYD>
0.600106

>  <Q_VSA_FNEG>
0.543013

>  <Q_VSA_FPNEG>
0.149959

>  <Q_VSA_FPOL>
0.399894

>  <Q_VSA_FPOS>
0.456987

>  <Q_VSA_FPPOS>
0.249935

>  <Q_VSA_HYD>
229.89

>  <Q_VSA_NEG>
208.019

>  <Q_VSA_PNEG>
57.4467

>  <Q_VSA_POL>
153.193

>  <Q_VSA_POS>
175.064

>  <Q_VSA_PPOS>
95.7459

>  <RPC+>
0.134426

>  <RPC->
0.135218

>  <lip_acc>
6

>  <lip_don>
1

>  <lip_druglike>
1

>  <lip_violation>
0

>  <opr_brigid>
22

>  <opr_leadlike>
1

>  <opr_nring>
4

>  <opr_nrot>
5

>  <opr_violation>
0

>  <E>
93.2047

>  <E_ang>
8.35689

>  <E_ele>
30.7438

>  <E_nb>
76.7311

>  <E_oop>
0.0841508

>  <E_sol>
-22.2615

>  <E_stb>
0.343767

>  <E_str>
5.96549

>  <E_strain>
0.22753

>  <E_tor>
1.72327

>  <E_vdw>
45.9873

>  <E_rele>
0

>  <E_rnb>
-1.42109e-014

>  <E_rsol>
-1.42109e-014

>  <E_rvdw>
0

>  <Kier1>
21.2404

>  <Kier2>
9.42769

>  <Kier3>
4.69444

>  <KierA1>
16.0228

>  <KierA2>
7.03228

>  <KierA3>
3.4737

>  <KierFlex>
4.02418

>  <logS>
-5.11998

>  <MNDO_dipole>
4.47228

>  <MNDO_E>
-112380

>  <MNDO_Eele>
-809718

>  <MNDO_HF>
-12.8521

>  <MNDO_HOMO>
-8.84054

>  <MNDO_IP>
8.84054

>  <MNDO_LUMO>
-0.63774

>  <apol>
57.7183

>  <bpol>
28.4617

>  <mr>
11.0301

>  <dipole>
1.14609

>  <dipoleX>
0.0722949

>  <dipoleY>
-0.664638

>  <dipoleZ>
-0.930889

>  <pmi>
13499.2

>  <pmiX>
12059.7

>  <pmiY>
960.107

>  <pmiZ>
479.392

>  <rgyr>
5.53709

>  <a_acc>
3

>  <a_acid>
0

>  <a_base>
0

>  <a_don>
1

>  <a_hyd>
19

>  <vsa_acc>
40.7008

>  <vsa_acid>
0

>  <vsa_base>
0

>  <vsa_don>
5.68258

>  <vsa_hyd>
287.168

>  <vsa_other>
34.3576

>  <vsa_pol>
46.3833

>  <PM3_dipole>
5.7315

>  <PM3_E>
-103440

>  <PM3_Eele>
-804630

>  <PM3_HF>
-25.7532

>  <PM3_HOMO>
-8.84737

>  <PM3_IP>
8.84737

>  <PM3_LUMO>
-0.58399

>  <SlogP>
3.0977

>  <SlogP_VSA0>
0

>  <SlogP_VSA1>
22.4538

>  <SlogP_VSA2>
40.6477

>  <SlogP_VSA3>
73.7583

>  <SlogP_VSA4>
54.0956

>  <SlogP_VSA5>
3.0551

>  <SlogP_VSA6>
0

>  <SlogP_VSA7>
163.077

>  <SlogP_VSA8>
0

>  <SlogP_VSA9>
45.9541

>  <SMR>
10.9255

>  <SMR_VSA0>
71.5866

>  <SMR_VSA1>
6.24863

>  <SMR_VSA2>
19.8406

>  <SMR_VSA3>
6.37115

>  <SMR_VSA4>
4.7171

>  <SMR_VSA5>
158.36

>  <SMR_VSA6>
89.9635

>  <SMR_VSA7>
45.9541

>  <ASA>
660.911

>  <ASA+>
235.052

>  <ASA->
319.437

>  <ASA_H>
504.978

>  <ASA_P>
155.934

>  <CASA+>
1147.05

>  <CASA->
1559.17

>  <DASA>
84.3849

>  <DCASA>
412.118

>  <FASA+>
0.355648

>  <FASA->
0.483328

>  <FASA_H>
0.764063

>  <FASA_P>
0.235937

>  <FCASA+>
1.73556

>  <FCASA->
2.35912

>  <VSA>
405.2

>  <TPSA>
73.48

>  <density>
0.855561

>  <vdw_area>
383.082

>  <vdw_vol>
514.63

>  <vsurf_A>
2.15382

>  <vsurf_CP>
0.154994

>  <vsurf_CW1>
2.66868

>  <vsurf_CW2>
2.17674

>  <vsurf_CW3>
1.24343

>  <vsurf_CW4>
0.499698

>  <vsurf_CW5>
0.190509

>  <vsurf_CW6>
0.0567719

>  <vsurf_CW7>
0.0042425

>  <vsurf_CW8>
0

>  <vsurf_D1>
1007.63

>  <vsurf_D2>
590.25

>  <vsurf_D3>
430

>  <vsurf_D4>
363.125

>  <vsurf_D5>
315.125

>  <vsurf_D6>
266.375

>  <vsurf_D7>
163.625

>  <vsurf_D8>
87.75

>  <vsurf_DD12>
1.11803

>  <vsurf_DD13>
0.707107

>  <vsurf_DD23>
0.5

>  <vsurf_DW12>
5.78792

>  <vsurf_DW13>
0.5

>  <vsurf_DW23>
5.40833

>  <vsurf_EDmin1>
-2.71005

>  <vsurf_EDmin2>
-2.653

>  <vsurf_EDmin3>
-2.619

>  <vsurf_EWmin1>
-5.4456

>  <vsurf_EWmin2>
-5.3788

>  <vsurf_EWmin3>
-5.13363

>  <vsurf_G>
1.36727

>  <vsurf_HB1>
311.125

>  <vsurf_HB2>
343

>  <vsurf_HB3>
292.875

>  <vsurf_HB4>
96.5

>  <vsurf_HB5>
28.625

>  <vsurf_HB6>
7.875

>  <vsurf_HB7>
1.125

>  <vsurf_HB8>
0

>  <vsurf_HL1>
0.0822674

>  <vsurf_HL2>
0.0258176

>  <vsurf_ID1>
0.484823

>  <vsurf_ID2>
0.526795

>  <vsurf_ID3>
0.622172

>  <vsurf_ID4>
0.606729

>  <vsurf_ID5>
0.628796

>  <vsurf_ID6>
0.68649

>  <vsurf_ID7>
0.911683

>  <vsurf_ID8>
0.779261

>  <vsurf_IW1>
0.84466

>  <vsurf_IW2>
1.28317

>  <vsurf_IW3>
2.11226

>  <vsurf_IW4>
2.36009

>  <vsurf_IW5>
2.0559

>  <vsurf_IW6>
2.33132

>  <vsurf_IW7>
3.94669

>  <vsurf_IW8>
0

>  <vsurf_R>
1.44073

>  <vsurf_S>
600.043

>  <vsurf_V>
864.5

>  <vsurf_W1>
1456.13

>  <vsurf_W2>
823.875

>  <vsurf_W3>
372.25

>  <vsurf_W4>
113.25

>  <vsurf_W5>
35.375

>  <vsurf_W6>
9.375

>  <vsurf_W7>
1.125

>  <vsurf_W8>
0

>  <vsurf_Wp1>
1145

>  <vsurf_Wp2>
480.875

>  <vsurf_Wp3>
79.375

>  <vsurf_Wp4>
16.75

>  <vsurf_Wp5>
6.75

>  <vsurf_Wp6>
1.5

>  <vsurf_Wp7>
0

>  <vsurf_Wp8>
0

>  <dens>
1.18678

>  <glob>
0.0567496

>  <std_dim1>
4.69426

>  <std_dim2>
1.39681

>  <std_dim3>
1.11828

>  <vol>
371

>  <logP(o/w)>
2.881

$$$$
D6.cdx
  MOE2008           3D

 50 53  0  0  0  0  0  0  0  0999 V2000
   -6.3610  -14.4980    1.8200 C   0  0  0  0  0  0  0  0  0  0  0  0
   -6.7520  -14.0820    2.7450 H   0  0  0  0  0  0  0  0  0  0  0  0
   -7.2270  -14.7850    0.7690 C   0  0  0  0  0  0  0  0  0  0  0  0
   -8.2910  -14.5900    0.8820 H   0  0  0  0  0  0  0  0  0  0  0  0
   -6.7530  -15.3240   -0.4300 C   0  0  0  0  0  0  0  0  0  0  0  0
   -7.4340  -15.5490   -1.2450 H   0  0  0  0  0  0  0  0  0  0  0  0
   -5.3770  -15.5620   -0.5360 C   0  0  0  0  0  0  0  0  0  0  0  0
   -4.4790  -15.2860    0.4980 C   0  0  0  0  0  0  0  0  0  0  0  0
   -4.9880  -14.7420    1.6980 C   0  0  0  0  0  0  0  0  0  0  0  0
   -4.3220  -14.5150    2.5260 H   0  0  0  0  0  0  0  0  0  0  0  0
   -4.6470  -16.0790   -1.5790 N   0  0  0  0  0  0  0  0  0  0  0  0
   -5.0400  -16.3740   -2.4630 H   0  0  0  0  0  0  0  0  0  0  0  0
   -3.3210  -16.1370   -1.2460 C   0  0  0  0  0  0  0  0  0  0  0  0
   -2.6010  -16.5270   -1.9560 H   0  0  0  0  0  0  0  0  0  0  0  0
   -3.1700  -15.6560    0.0420 C   0  0  0  0  0  0  0  0  0  0  0  0
   -1.9120  -15.5530    0.7700 C   0  0  0  0  0  0  0  0  0  0  0  0
   -0.6140  -15.9980    0.1150 C   0  0  0  0  0  0  0  0  0  0  0  0
    0.2990  -15.0000   -0.2180 N   0  0  0  0  0  0  0  0  0  0  0  0
    1.5820  -15.3750   -0.8130 C   0  0  0  0  0  0  0  0  0  0  0  0
    1.8320  -16.4100   -0.5550 H   0  0  0  0  0  0  0  0  0  0  0  0
    1.4520  -15.3280   -1.9010 H   0  0  0  0  0  0  0  0  0  0  0  0
    2.7100  -14.4360   -0.3740 C   0  0  0  0  0  0  0  0  0  0  0  0
    3.6440  -14.7160   -0.8720 H   0  0  0  0  0  0  0  0  0  0  0  0
    2.8570  -14.5250    0.7080 H   0  0  0  0  0  0  0  0  0  0  0  0
    2.4070  -13.0230   -0.6500 N   0  0  0  0  0  0  0  0  0  0  0  0
    0.9940  -12.6740   -0.8220 C   0  0  0  0  0  0  0  0  0  0  0  0
    0.8310  -11.6220   -0.5640 H   0  0  0  0  0  0  0  0  0  0  0  0
    0.7720  -12.7890   -1.8900 H   0  0  0  0  0  0  0  0  0  0  0  0
    0.0620  -13.5670    0.0050 C   0  0  0  0  0  0  0  0  0  0  0  0
   -0.9820  -13.3290   -0.2200 H   0  0  0  0  0  0  0  0  0  0  0  0
    0.2260  -13.3860    1.0740 H   0  0  0  0  0  0  0  0  0  0  0  0
    3.3600  -12.0150   -0.7870 C   0  0  0  0  0  0  0  0  0  0  0  0
    4.7760  -12.3250   -0.4800 C   0  0  0  0  0  0  0  0  0  0  0  0
    5.1560  -12.7350    0.8010 C   0  0  0  0  0  0  0  0  0  0  0  0
    4.4160  -12.8430    1.5900 H   0  0  0  0  0  0  0  0  0  0  0  0
    6.5020  -12.9940    1.0790 C   0  0  0  0  0  0  0  0  0  0  0  0
    6.7630  -13.3150    2.0820 H   0  0  0  0  0  0  0  0  0  0  0  0
    7.4700  -12.8260    0.0840 C   0  0  0  0  0  0  0  0  0  0  0  0
    7.0800  -12.3920   -1.1880 C   0  0  0  0  0  0  0  0  0  0  0  0
    7.8310  -12.2480   -1.9610 H   0  0  0  0  0  0  0  0  0  0  0  0
    5.7380  -12.1340   -1.4730 C   0  0  0  0  0  0  0  0  0  0  0  0
    5.4500  -11.7830   -2.4610 H   0  0  0  0  0  0  0  0  0  0  0  0
   -1.8300  -15.1010    1.9100 O   0  0  0  0  0  0  0  0  0  0  0  0
   -0.4540  -17.1980   -0.0790 O   0  0  0  0  0  0  0  0  0  0  0  0
    3.1050  -10.8730   -1.1580 O   0  0  0  0  0  0  0  0  0  0  0  0
    8.8150  -13.0410    0.2260 O   0  0  0  0  0  0  0  0  0  0  0  0
    9.2640  -13.5010    1.4950 C   0  0  0  0  0  0  0  0  0  0  0  0
   10.3480  -13.6330    1.4370 H   0  0  0  0  0  0  0  0  0  0  0  0
    8.8220  -14.4720    1.7420 H   0  0  0  0  0  0  0  0  0  0  0  0
    9.0600  -12.7620    2.2770 H   0  0  0  0  0  0  0  0  0  0  0  0
  1  2  1  0  0  0  0
  1  3  1  0  0  0  0
  1  9  2  0  0  0  0
  3  4  1  0  0  0  0
  3  5  2  0  0  0  0
  5  6  1  0  0  0  0
  5  7  1  0  0  0  0
  7  8  2  0  0  0  0
  7 11  1  0  0  0  0
  8  9  1  0  0  0  0
  8 15  1  0  0  0  0
  9 10  1  0  0  0  0
 11 12  1  0  0  0  0
 11 13  1  0  0  0  0
 13 14  1  0  0  0  0
 13 15  2  0  0  0  0
 15 16  1  0  0  0  0
 16 17  1  0  0  0  0
 16 43  2  0  0  0  0
 17 18  1  0  0  0  0
 17 44  2  0  0  0  0
 18 19  1  0  0  0  0
 18 29  1  0  0  0  0
 19 20  1  0  0  0  0
 19 21  1  0  0  0  0
 19 22  1  0  0  0  0
 22 23  1  0  0  0  0
 22 24  1  0  0  0  0
 22 25  1  0  0  0  0
 25 26  1  0  0  0  0
 25 32  1  0  0  0  0
 26 27  1  0  0  0  0
 26 28  1  0  0  0  0
 26 29  1  0  0  0  0
 29 30  1  0  0  0  0
 29 31  1  0  0  0  0
 32 33  1  0  0  0  0
 32 45  2  0  0  0  0
 33 34  1  0  0  0  0
 33 41  2  0  0  0  0
 34 35  1  0  0  0  0
 34 36  2  0  0  0  0
 36 37  1  0  0  0  0
 36 38  1  0  0  0  0
 38 39  2  0  0  0  0
 38 46  1  0  0  0  0
 39 40  1  0  0  0  0
 39 41  1  0  0  0  0
 41 42  1  0  0  0  0
 46 47  1  0  0  0  0
 47 48  1  0  0  0  0
 47 49  1  0  0  0  0
 47 50  1  0  0  0  0
M  END
>  <Activity>
4.5202

>  <AM1_dipole>
2.77757

>  <AM1_E>
-115440

>  <AM1_Eele>
-863775

>  <AM1_HF>
-22.3422

>  <AM1_HOMO>
-8.88645

>  <AM1_IP>
8.88645

>  <AM1_LUMO>
-0.49615

>  <diameter>
17

>  <petitjean>
0.470588

>  <petitjeanSC>
0.888889

>  <radius>
9

>  <VDistEq>
3.79251

>  <VDistMa>
9.38323

>  <weinerPath>
2533

>  <weinerPol>
48

>  <BCUT_PEOE_0>
-2.71188

>  <BCUT_PEOE_1>
-0.611141

>  <BCUT_PEOE_2>
0.633777

>  <BCUT_PEOE_3>
2.65029

>  <BCUT_SLOGP_0>
-2.86

>  <BCUT_SLOGP_1>
-0.526513

>  <BCUT_SLOGP_2>
0.705137

>  <BCUT_SLOGP_3>
2.50455

>  <BCUT_SMR_0>
-2.43204

>  <BCUT_SMR_1>
-0.419669

>  <BCUT_SMR_2>
0.79305

>  <BCUT_SMR_3>
2.92029

>  <GCUT_PEOE_0>
-0.860602

>  <GCUT_PEOE_1>
-0.436217

>  <GCUT_PEOE_2>
0.0760959

>  <GCUT_PEOE_3>
2.66653

>  <GCUT_SLOGP_0>
-0.976485

>  <GCUT_SLOGP_1>
-0.339596

>  <GCUT_SLOGP_2>
0.137308

>  <GCUT_SLOGP_3>
2.65484

>  <GCUT_SMR_0>
-0.50893

>  <GCUT_SMR_1>
-0.209111

>  <GCUT_SMR_2>
0.183813

>  <GCUT_SMR_3>
2.93762

>  <a_aro>
15

>  <a_count>
50

>  <a_IC>
79.0918

>  <a_ICM>
1.58184

>  <a_nH>
21

>  <b_1rotN>
6

>  <b_1rotR>
0.1875

>  <b_ar>
16

>  <b_count>
53

>  <b_double>
3

>  <b_rotN>
6

>  <b_rotR>
0.1875

>  <b_single>
34

>  <b_triple>
0

>  <chi0v>
16.052

>  <chi0v_C>
13.0246

>  <chi1v>
9.41294

>  <chi1v_C>
5.93739

>  <chiral>
0

>  <chiral_u>
0

>  <nmol>
1

>  <reactive>
0

>  <rings>
4

>  <Weight>
391.427

>  <a_heavy>
29

>  <a_nB>
0

>  <a_nBr>
0

>  <a_nC>
22

>  <a_nCl>
0

>  <a_nF>
0

>  <a_nI>
0

>  <a_nN>
3

>  <a_nO>
4

>  <a_nP>
0

>  <a_nS>
0

>  <b_heavy>
32

>  <chi0>
20.3801

>  <chi0_C>
14.8112

>  <chi1>
14.0797

>  <chi1_C>
8.0244

>  <FCharge>
0

>  <VAdjEq>
0.388286

>  <VAdjMa>
6

>  <zagreb>
154

>  <balabanJ>
1.24701

>  <PEOE_PC+>
2.55415

>  <PEOE_PC->
-2.55415

>  <PEOE_RPC+>
0.115537

>  <PEOE_RPC->
0.140926

>  <PEOE_VSA+0>
105.63

>  <PEOE_VSA+1>
95.9748

>  <PEOE_VSA+2>
0

>  <PEOE_VSA+3>
8.61901

>  <PEOE_VSA+4>
0

>  <PEOE_VSA+5>
34.3576

>  <PEOE_VSA+6>
0

>  <PEOE_VSA-0>
61.2745

>  <PEOE_VSA-1>
36.7647

>  <PEOE_VSA-2>
0

>  <PEOE_VSA-3>
0

>  <PEOE_VSA-4>
0

>  <PEOE_VSA-5>
40.7008

>  <PEOE_VSA-6>
2.64065

>  <PEOE_VSA_FHYD>
0.798687

>  <PEOE_VSA_FNEG>
0.366308

>  <PEOE_VSA_FPNEG>
0.112295

>  <PEOE_VSA_FPOL>
0.201313

>  <PEOE_VSA_FPOS>
0.633692

>  <PEOE_VSA_FPPOS>
0.0890182

>  <PEOE_VSA_HYD>
308.263

>  <PEOE_VSA_NEG>
141.381

>  <PEOE_VSA_PNEG>
43.3414

>  <PEOE_VSA_POL>
77.699

>  <PEOE_VSA_POS>
244.581

>  <PEOE_VSA_PPOS>
34.3576

>  <PC+>
5.131

>  <PC->
-5.133

>  <Q_PC+>
5.131

>  <Q_PC->
-5.133

>  <Q_RPC+>
0.12785

>  <Q_RPC->
0.12858

>  <Q_VSA_FHYD>
0.531834

>  <Q_VSA_FNEG>
0.432421

>  <Q_VSA_FPNEG>
0.155327

>  <Q_VSA_FPOL>
0.468166

>  <Q_VSA_FPOS>
0.567579

>  <Q_VSA_FPPOS>
0.312838

>  <Q_VSA_HYD>
205.268

>  <Q_VSA_NEG>
166.898

>  <Q_VSA_PNEG>
59.9504

>  <Q_VSA_POL>
180.694

>  <Q_VSA_POS>
219.064

>  <Q_VSA_PPOS>
120.744

>  <RPC+>
0.12785

>  <RPC->
0.12858

>  <lip_acc>
7

>  <lip_don>
1

>  <lip_druglike>
1

>  <lip_violation>
0

>  <opr_brigid>
22

>  <opr_leadlike>
1

>  <opr_nring>
4

>  <opr_nrot>
6

>  <opr_violation>
0

>  <E>
102.628

>  <E_ang>
13.3154

>  <E_ele>
28.0536

>  <E_nb>
79.307

>  <E_oop>
0.049592

>  <E_sol>
-21.2832

>  <E_stb>
0.292404

>  <E_str>
6.00349

>  <E_strain>
0.00453548

>  <E_tor>
3.6601

>  <E_vdw>
51.2534

>  <E_rele>
0

>  <E_rnb>
-1.27898e-013

>  <E_rsol>
-1.27898e-013

>  <E_rvdw>
0

>  <Kier1>
22.2031

>  <Kier2>
10.08

>  <Kier3>
4.92404

>  <KierA1>
15.4407

>  <KierA2>
6.91129

>  <KierA3>
3.34094

>  <KierFlex>
3.67983

>  <logS>
-4.07997

>  <MNDO_dipole>
1.48287

>  <MNDO_E>
-115721

>  <MNDO_Eele>
-856849

>  <MNDO_HF>
-55.1786

>  <MNDO_HOMO>
-8.81118

>  <MNDO_IP>
8.81118

>  <MNDO_LUMO>
-0.44805

>  <apol>
59.2307

>  <bpol>
32.3673

>  <mr>
10.9202

>  <dipole>
0.585978

>  <dipoleX>
-0.0783245

>  <dipoleY>
-0.460026

>  <dipoleZ>
-0.354417

>  <pmi>
10631.2

>  <pmiX>
9229.27

>  <pmiY>
980.158

>  <pmiZ>
421.792

>  <rgyr>
5.21154

>  <a_acc>
4

>  <a_acid>
0

>  <a_base>
0

>  <a_don>
1

>  <a_hyd>
19

>  <vsa_acc>
43.2045

>  <vsa_acid>
0

>  <vsa_base>
0

>  <vsa_don>
5.68258

>  <vsa_hyd>
285.408

>  <vsa_other>
34.3576

>  <vsa_pol>
48.8871

>  <PM3_dipole>
2.5832

>  <PM3_E>
-105856

>  <PM3_Eele>
-847535

>  <PM3_HF>
-70.1768

>  <PM3_HOMO>
-8.80562

>  <PM3_IP>
8.80562

>  <PM3_LUMO>
-0.53212

>  <SlogP>
2.3438

>  <SlogP_VSA0>
10.9999

>  <SlogP_VSA1>
22.4538

>  <SlogP_VSA2>
40.6477

>  <SlogP_VSA3>
73.7583

>  <SlogP_VSA4>
54.0956

>  <SlogP_VSA5>
35.3839

>  <SlogP_VSA6>
0

>  <SlogP_VSA7>
163.077

>  <SlogP_VSA8>
0

>  <SlogP_VSA9>
5.24343

>  <SMR>
10.8107

>  <SMR_VSA0>
71.5866

>  <SMR_VSA1>
17.2485

>  <SMR_VSA2>
16.7855

>  <SMR_VSA3>
11.6146

>  <SMR_VSA4>
4.7171

>  <SMR_VSA5>
158.36

>  <SMR_VSA6>
89.9635

>  <SMR_VSA7>
35.3839

>  <ASA>
667.383

>  <ASA+>
267.314

>  <ASA->
234.259

>  <ASA_H>
474.674

>  <ASA_P>
192.708

>  <CASA+>
1371.59

>  <CASA->
1202.45

>  <DASA>
33.0558

>  <DCASA>
169.141

>  <FASA+>
0.400541

>  <FASA->
0.351011

>  <FASA_H>
0.711248

>  <FASA_P>
0.288752

>  <FCASA+>
2.05518

>  <FCASA->
1.80174

>  <VSA>
408.736

>  <TPSA>
82.71

>  <density>
0.751685

>  <vdw_area>
385.962

>  <vdw_vol>
520.732

>  <vsurf_A>
0.448848

>  <vsurf_CP>
0.144785

>  <vsurf_CW1>
2.66501

>  <vsurf_CW2>
2.14237

>  <vsurf_CW3>
1.33935

>  <vsurf_CW4>
0.546958

>  <vsurf_CW5>
0.195151

>  <vsurf_CW6>
0.0578193

>  <vsurf_CW7>
0.00617974

>  <vsurf_CW8>
0

>  <vsurf_D1>
934

>  <vsurf_D2>
558

>  <vsurf_D3>
421.5

>  <vsurf_D4>
350.25

>  <vsurf_D5>
301.875

>  <vsurf_D6>
230.375

>  <vsurf_D7>
144.25

>  <vsurf_D8>
82.375

>  <vsurf_DD12>
1.22474

>  <vsurf_DD13>
2.91548

>  <vsurf_DD23>
4.06202

>  <vsurf_DW12>
0.5

>  <vsurf_DW13>
5.59017

>  <vsurf_DW23>
5.83095

>  <vsurf_EDmin1>
-2.62835

>  <vsurf_EDmin2>
-2.58244

>  <vsurf_EDmin3>
-2.58079

>  <vsurf_EWmin1>
-5.34762

>  <vsurf_EWmin2>
-5.22783

>  <vsurf_EWmin3>
-5.21234

>  <vsurf_G>
1.36999

>  <vsurf_HB1>
328.25

>  <vsurf_HB2>
392.75

>  <vsurf_HB3>
323.625

>  <vsurf_HB4>
105.875

>  <vsurf_HB5>
29.625

>  <vsurf_HB6>
7

>  <vsurf_HB7>
1.125

>  <vsurf_HB8>
0

>  <vsurf_HL1>
0.0860024

>  <vsurf_HL2>
0.0249822

>  <vsurf_ID1>
0.309277

>  <vsurf_ID2>
0.177586

>  <vsurf_ID3>
0.203384

>  <vsurf_ID4>
0.278276

>  <vsurf_ID5>
0.386715

>  <vsurf_ID6>
0.680249

>  <vsurf_ID7>
0.398479

>  <vsurf_ID8>
0.707573

>  <vsurf_IW1>
0.172113

>  <vsurf_IW2>
0.395424

>  <vsurf_IW3>
0.328781

>  <vsurf_IW4>
0.354603

>  <vsurf_IW5>
0.248238

>  <vsurf_IW6>
0.674256

>  <vsurf_IW7>
3.69285

>  <vsurf_IW8>
0

>  <vsurf_R>
1.4403

>  <vsurf_S>
603.262

>  <vsurf_V>
868.875

>  <vsurf_W1>
1446.75

>  <vsurf_W2>
855.5

>  <vsurf_W3>
404.75

>  <vsurf_W4>
122.375

>  <vsurf_W5>
36.25

>  <vsurf_W6>
8.75

>  <vsurf_W7>
1.125

>  <vsurf_W8>
0

>  <vsurf_Wp1>
1118.5

>  <vsurf_Wp2>
462.75

>  <vsurf_Wp3>
81.125

>  <vsurf_Wp4>
16.5

>  <vsurf_Wp5>
6.625

>  <vsurf_Wp6>
1.75

>  <vsurf_Wp7>
0

>  <vsurf_Wp8>
0

>  <dens>
1.05399

>  <glob>
0.0522557

>  <std_dim1>
5.22366

>  <std_dim2>
1.34934

>  <std_dim3>
1.1941

>  <vol>
371.375

>  <logP(o/w)>
2.039

$$$$
D6.cdx
  MOE2008           3D

 47 50  0  0  0  0  0  0  0  0999 V2000
   -6.4550  -18.4350    0.1680 C   0  0  0  0  0  0  0  0  0  0  0  0
   -7.1190  -17.6280   -0.1300 H   0  0  0  0  0  0  0  0  0  0  0  0
   -6.9300  -19.4550    0.9880 C   0  0  0  0  0  0  0  0  0  0  0  0
   -7.9630  -19.4350    1.3250 H   0  0  0  0  0  0  0  0  0  0  0  0
   -6.0990  -20.5070    1.3850 C   0  0  0  0  0  0  0  0  0  0  0  0
   -6.4750  -21.3010    2.0230 H   0  0  0  0  0  0  0  0  0  0  0  0
   -4.7750  -20.4960    0.9280 C   0  0  0  0  0  0  0  0  0  0  0  0
   -4.2660  -19.4900    0.1040 C   0  0  0  0  0  0  0  0  0  0  0  0
   -5.1290  -18.4410   -0.2800 C   0  0  0  0  0  0  0  0  0  0  0  0
   -4.7710  -17.6400   -0.9210 H   0  0  0  0  0  0  0  0  0  0  0  0
   -3.7550  -21.3890    1.1560 N   0  0  0  0  0  0  0  0  0  0  0  0
   -3.8390  -22.2240    1.7200 H   0  0  0  0  0  0  0  0  0  0  0  0
   -2.6180  -20.9840    0.5090 C   0  0  0  0  0  0  0  0  0  0  0  0
   -1.7150  -21.5770    0.5790 H   0  0  0  0  0  0  0  0  0  0  0  0
   -2.8930  -19.8060   -0.1630 C   0  0  0  0  0  0  0  0  0  0  0  0
   -1.9480  -19.0520   -0.9760 C   0  0  0  0  0  0  0  0  0  0  0  0
   -0.5270  -19.5550   -1.1430 C   0  0  0  0  0  0  0  0  0  0  0  0
    0.4540  -18.9580   -0.3580 N   0  0  0  0  0  0  0  0  0  0  0  0
    1.8400  -19.4150   -0.4590 C   0  0  0  0  0  0  0  0  0  0  0  0
    2.0890  -19.8840    0.5010 H   0  0  0  0  0  0  0  0  0  0  0  0
    1.9500  -20.1760   -1.2380 H   0  0  0  0  0  0  0  0  0  0  0  0
    2.7960  -18.2450   -0.7330 C   0  0  0  0  0  0  0  0  0  0  0  0
    2.6240  -17.8450   -1.7390 H   0  0  0  0  0  0  0  0  0  0  0  0
    3.8220  -18.6140   -0.6830 H   0  0  0  0  0  0  0  0  0  0  0  0
    2.5670  -17.1360    0.2100 N   0  0  0  0  0  0  0  0  0  0  0  0
    1.1720  -16.6930    0.3160 C   0  0  0  0  0  0  0  0  0  0  0  0
    1.0570  -15.9260    1.0880 H   0  0  0  0  0  0  0  0  0  0  0  0
    0.9140  -16.2350   -0.6460 H   0  0  0  0  0  0  0  0  0  0  0  0
    0.2310  -17.8690    0.6030 C   0  0  0  0  0  0  0  0  0  0  0  0
   -0.8050  -17.5260    0.5970 H   0  0  0  0  0  0  0  0  0  0  0  0
    0.4370  -18.2800    1.5990 H   0  0  0  0  0  0  0  0  0  0  0  0
    3.5390  -16.5060    0.9830 C   0  0  0  0  0  0  0  0  0  0  0  0
    4.9610  -16.8320    0.7410 C   0  0  0  0  0  0  0  0  0  0  0  0
    5.7160  -17.3780    1.7830 C   0  0  0  0  0  0  0  0  0  0  0  0
    5.2590  -17.5750    2.7500 H   0  0  0  0  0  0  0  0  0  0  0  0
    7.0640  -17.6700    1.5730 C   0  0  0  0  0  0  0  0  0  0  0  0
    7.6630  -18.1000    2.3710 H   0  0  0  0  0  0  0  0  0  0  0  0
    7.6420  -17.4030    0.3340 C   0  0  0  0  0  0  0  0  0  0  0  0
    6.9000  -16.8370   -0.7020 C   0  0  0  0  0  0  0  0  0  0  0  0
    7.3510  -16.6160   -1.6640 H   0  0  0  0  0  0  0  0  0  0  0  0
    5.5510  -16.5410   -0.4950 C   0  0  0  0  0  0  0  0  0  0  0  0
    4.9690  -16.0850   -1.2920 H   0  0  0  0  0  0  0  0  0  0  0  0
   -2.2320  -18.0000   -1.5420 O   0  0  0  0  0  0  0  0  0  0  0  0
   -0.3390  -20.4590   -1.9500 O   0  0  0  0  0  0  0  0  0  0  0  0
    3.2990  -15.6880    1.8650 O   0  0  0  0  0  0  0  0  0  0  0  0
    8.9620  -17.7100    0.1730 O   0  0  0  0  0  0  0  0  0  0  0  0
    9.2240  -17.4940   -0.7370 H   0  0  0  0  0  0  0  0  0  0  0  0
  1  2  1  0  0  0  0
  1  3  1  0  0  0  0
  1  9  2  0  0  0  0
  3  4  1  0  0  0  0
  3  5  2  0  0  0  0
  5  6  1  0  0  0  0
  5  7  1  0  0  0  0
  7  8  2  0  0  0  0
  7 11  1  0  0  0  0
  8  9  1  0  0  0  0
  8 15  1  0  0  0  0
  9 10  1  0  0  0  0
 11 12  1  0  0  0  0
 11 13  1  0  0  0  0
 13 14  1  0  0  0  0
 13 15  2  0  0  0  0
 15 16  1  0  0  0  0
 16 17  1  0  0  0  0
 16 43  2  0  0  0  0
 17 18  1  0  0  0  0
 17 44  2  0  0  0  0
 18 19  1  0  0  0  0
 18 29  1  0  0  0  0
 19 20  1  0  0  0  0
 19 21  1  0  0  0  0
 19 22  1  0  0  0  0
 22 23  1  0  0  0  0
 22 24  1  0  0  0  0
 22 25  1  0  0  0  0
 25 26  1  0  0  0  0
 25 32  1  0  0  0  0
 26 27  1  0  0  0  0
 26 28  1  0  0  0  0
 26 29  1  0  0  0  0
 29 30  1  0  0  0  0
 29 31  1  0  0  0  0
 32 33  1  0  0  0  0
 32 45  2  0  0  0  0
 33 34  1  0  0  0  0
 33 41  2  0  0  0  0
 34 35  1  0  0  0  0
 34 36  2  0  0  0  0
 36 37  1  0  0  0  0
 36 38  1  0  0  0  0
 38 39  2  0  0  0  0
 38 46  1  0  0  0  0
 39 40  1  0  0  0  0
 39 41  1  0  0  0  0
 41 42  1  0  0  0  0
 46 47  1  0  0  0  0
M  END
>  <Activity>
5.6038

>  <AM1_dipole>
3.85498

>  <AM1_E>
-111861

>  <AM1_Eele>
-820896

>  <AM1_HF>
-43.0684

>  <AM1_HOMO>
-8.87516

>  <AM1_IP>
8.87516

>  <AM1_LUMO>
-0.4759

>  <diameter>
16

>  <petitjean>
0.5

>  <petitjeanSC>
1

>  <radius>
8

>  <VDistEq>
3.71892

>  <VDistMa>
9.28576

>  <weinerPath>
2264

>  <weinerPol>
46

>  <BCUT_PEOE_0>
-2.71187

>  <BCUT_PEOE_1>
-0.640524

>  <BCUT_PEOE_2>
0.688049

>  <BCUT_PEOE_3>
2.65028

>  <BCUT_SLOGP_0>
-2.86

>  <BCUT_SLOGP_1>
-0.572073

>  <BCUT_SLOGP_2>
0.767983

>  <BCUT_SLOGP_3>
2.50439

>  <BCUT_SMR_0>
-2.43203

>  <BCUT_SMR_1>
-0.47763

>  <BCUT_SMR_2>
0.844825

>  <BCUT_SMR_3>
2.92027

>  <GCUT_PEOE_0>
-0.860602

>  <GCUT_PEOE_1>
-0.444366

>  <GCUT_PEOE_2>
0.0892138

>  <GCUT_PEOE_3>
2.65432

>  <GCUT_SLOGP_0>
-0.976484

>  <GCUT_SLOGP_1>
-0.341632

>  <GCUT_SLOGP_2>
0.157197

>  <GCUT_SLOGP_3>
2.6405

>  <GCUT_SMR_0>
-0.508911

>  <GCUT_SMR_1>
-0.23404

>  <GCUT_SMR_2>
0.225568

>  <GCUT_SMR_3>
2.92573

>  <a_aro>
15

>  <a_count>
47

>  <a_IC>
75.3615

>  <a_ICM>
1.60344

>  <a_nH>
19

>  <b_1rotN>
5

>  <b_1rotR>
0.16129

>  <b_ar>
16

>  <b_count>
50

>  <b_double>
3

>  <b_rotN>
5

>  <b_rotR>
0.16129

>  <b_single>
31

>  <b_triple>
0

>  <chi0v>
15.091

>  <chi0v_C>
12.0246

>  <chi1v>
9.02417

>  <chi1v_C>
5.93739

>  <chiral>
0

>  <chiral_u>
0

>  <nmol>
1

>  <reactive>
0

>  <rings>
4

>  <Weight>
377.4

>  <a_heavy>
28

>  <a_nB>
0

>  <a_nBr>
0

>  <a_nC>
21

>  <a_nCl>
0

>  <a_nF>
0

>  <a_nI>
0

>  <a_nN>
3

>  <a_nO>
4

>  <a_nP>
0

>  <a_nS>
0

>  <b_heavy>
31

>  <chi0>
19.673

>  <chi0_C>
13.8112

>  <chi1>
13.5417

>  <chi1_C>
8.0244

>  <FCharge>
0

>  <VAdjEq>
0.398935

>  <VAdjMa>
5.9542

>  <zagreb>
150

>  <balabanJ>
1.26157

>  <PEOE_PC+>
2.56658

>  <PEOE_PC->
-2.56658

>  <PEOE_RPC+>
0.114978

>  <PEOE_RPC->
0.140243

>  <PEOE_VSA+0>
80.6318

>  <PEOE_VSA+1>
83.1786

>  <PEOE_VSA+2>
0

>  <PEOE_VSA+3>
8.61901

>  <PEOE_VSA+4>
10.3242

>  <PEOE_VSA+5>
34.3576

>  <PEOE_VSA+6>
0

>  <PEOE_VSA-0>
61.2745

>  <PEOE_VSA-1>
36.7647

>  <PEOE_VSA-2>
0

>  <PEOE_VSA-3>
0

>  <PEOE_VSA-4>
0

>  <PEOE_VSA-5>
40.7008

>  <PEOE_VSA-6>
7.90443

>  <PEOE_VSA_FHYD>
0.743545

>  <PEOE_VSA_FNEG>
0.40314

>  <PEOE_VSA_FPNEG>
0.13362

>  <PEOE_VSA_FPOL>
0.256455

>  <PEOE_VSA_FPOS>
0.59686

>  <PEOE_VSA_FPPOS>
0.122835

>  <PEOE_VSA_HYD>
270.469

>  <PEOE_VSA_NEG>
146.644

>  <PEOE_VSA_PNEG>
48.6052

>  <PEOE_VSA_POL>
93.2869

>  <PEOE_VSA_POS>
217.111

>  <PEOE_VSA_PPOS>
44.6818

>  <PC+>
5.301

>  <PC->
-5.302

>  <Q_PC+>
5.301

>  <Q_PC->
-5.302

>  <Q_RPC+>
0.12375

>  <Q_RPC->
0.124481

>  <Q_VSA_FHYD>
0.529123

>  <Q_VSA_FNEG>
0.473289

>  <Q_VSA_FPNEG>
0.17928

>  <Q_VSA_FPOL>
0.470877

>  <Q_VSA_FPOS>
0.526711

>  <Q_VSA_FPPOS>
0.291597

>  <Q_VSA_HYD>
192.471

>  <Q_VSA_NEG>
172.162

>  <Q_VSA_PNEG>
65.2142

>  <Q_VSA_POL>
171.284

>  <Q_VSA_POS>
191.594

>  <Q_VSA_PPOS>
106.07

>  <RPC+>
0.12375

>  <RPC->
0.124481

>  <lip_acc>
7

>  <lip_don>
2

>  <lip_druglike>
1

>  <lip_violation>
0

>  <opr_brigid>
22

>  <opr_leadlike>
1

>  <opr_nring>
4

>  <opr_nrot>
5

>  <opr_violation>
0

>  <E>
89.7927

>  <E_ang>
8.50145

>  <E_ele>
26.9104

>  <E_nb>
73.4557

>  <E_oop>
0.0169134

>  <E_sol>
-27.1756

>  <E_stb>
0.180777

>  <E_str>
5.82458

>  <E_strain>
0.00450631

>  <E_tor>
1.81326

>  <E_vdw>
46.5452

>  <E_rele>
0

>  <E_rnb>
-4.26326e-014

>  <E_rsol>
-4.26326e-014

>  <E_rvdw>
0

>  <Kier1>
21.2404

>  <Kier2>
9.42769

>  <Kier3>
4.69444

>  <KierA1>
14.5633

>  <KierA2>
6.36575

>  <KierA3>
3.13532

>  <KierFlex>
3.31095

>  <logS>
-3.66764

>  <MNDO_dipole>
3.7728

>  <MNDO_E>
-112127

>  <MNDO_Eele>
-811536

>  <MNDO_HF>
-63.7971

>  <MNDO_HOMO>
-8.8249

>  <MNDO_IP>
8.8249

>  <MNDO_LUMO>
-0.46664

>  <apol>
56.1371

>  <bpol>
28.2649

>  <mr>
10.4112

>  <dipole>
0.820333

>  <dipoleX>
0.247049

>  <dipoleY>
-0.775816

>  <dipoleZ>
0.10011

>  <pmi>
9260.92

>  <pmiX>
7974.65

>  <pmiY>
894.124

>  <pmiZ>
392.144

>  <rgyr>
4.95366

>  <a_acc>
4

>  <a_acid>
0

>  <a_base>
0

>  <a_don>
2

>  <a_hyd>
18

>  <vsa_acc>
40.7008

>  <vsa_acid>
0

>  <vsa_base>
0

>  <vsa_don>
5.68258

>  <vsa_hyd>
249.749

>  <vsa_other>
34.3576

>  <vsa_pol>
59.9503

>  <PM3_dipole>
3.91956

>  <PM3_E>
-102421

>  <PM3_Eele>
-803480

>  <PM3_HF>
-78.1279

>  <PM3_HOMO>
-8.80143

>  <PM3_IP>
8.80143

>  <PM3_LUMO>
-0.5451

>  <SlogP>
2.0408

>  <SlogP_VSA0>
25.3852

>  <SlogP_VSA1>
22.4538

>  <SlogP_VSA2>
40.6477

>  <SlogP_VSA3>
73.7583

>  <SlogP_VSA4>
54.0956

>  <SlogP_VSA5>
0

>  <SlogP_VSA6>
0

>  <SlogP_VSA7>
163.077

>  <SlogP_VSA8>
0

>  <SlogP_VSA9>
5.24343

>  <SMR>
10.3219

>  <SMR_VSA0>
71.5866

>  <SMR_VSA1>
31.6339

>  <SMR_VSA2>
16.7855

>  <SMR_VSA3>
11.6146

>  <SMR_VSA4>
4.7171

>  <SMR_VSA5>
158.36

>  <SMR_VSA6>
89.9635

>  <SMR_VSA7>
0

>  <ASA>
633.187

>  <ASA+>
270.761

>  <ASA->
254.951

>  <ASA_H>
429.964

>  <ASA_P>
203.222

>  <CASA+>
1435.31

>  <CASA->
1351.75

>  <DASA>
15.8107

>  <DCASA>
83.5575

>  <FASA+>
0.427617

>  <FASA->
0.402647

>  <FASA_H>
0.679048

>  <FASA_P>
0.320952

>  <FCASA+>
2.2668

>  <FCASA->
2.13484

>  <VSA>
382.779

>  <TPSA>
93.71

>  <density>
0.763714

>  <vdw_area>
363.756

>  <vdw_vol>
494.164

>  <vsurf_A>
1.78601

>  <vsurf_CP>
0.112024

>  <vsurf_CW1>
2.71653

>  <vsurf_CW2>
2.32762

>  <vsurf_CW3>
1.45089

>  <vsurf_CW4>
0.618744

>  <vsurf_CW5>
0.246218

>  <vsurf_CW6>
0.0646182

>  <vsurf_CW7>
0.00633293

>  <vsurf_CW8>
0

>  <vsurf_D1>
861.875

>  <vsurf_D2>
508.75

>  <vsurf_D3>
371.125

>  <vsurf_D4>
311.25

>  <vsurf_D5>
260.875

>  <vsurf_D6>
212.5

>  <vsurf_D7>
135.375

>  <vsurf_D8>
73.625

>  <vsurf_DD12>
0.5

>  <vsurf_DD13>
5.40833

>  <vsurf_DD23>
5.61249

>  <vsurf_DW12>
0.707107

>  <vsurf_DW13>
0.707107

>  <vsurf_DW23>
0.707107

>  <vsurf_EDmin1>
-2.65716

>  <vsurf_EDmin2>
-2.58983

>  <vsurf_EDmin3>
-2.58757

>  <vsurf_EWmin1>
-5.54283

>  <vsurf_EWmin2>
-5.44226

>  <vsurf_EWmin3>
-5.31565

>  <vsurf_G>
1.35576

>  <vsurf_HB1>
343.875

>  <vsurf_HB2>
403.875

>  <vsurf_HB3>
326.125

>  <vsurf_HB4>
110.875

>  <vsurf_HB5>
33.5

>  <vsurf_HB6>
7

>  <vsurf_HB7>
1

>  <vsurf_HB8>
0

>  <vsurf_HL1>
0.116874

>  <vsurf_HL2>
0.0305221

>  <vsurf_ID1>
0.579999

>  <vsurf_ID2>
0.515489

>  <vsurf_ID3>
0.630666

>  <vsurf_ID4>
0.780975

>  <vsurf_ID5>
0.957017

>  <vsurf_ID6>
0.845851

>  <vsurf_ID7>
0.545695

>  <vsurf_ID8>
0.825503

>  <vsurf_IW1>
0.378442

>  <vsurf_IW2>
0.800583

>  <vsurf_IW3>
0.737945

>  <vsurf_IW4>
1.04998

>  <vsurf_IW5>
1.17583

>  <vsurf_IW6>
1.51404

>  <vsurf_IW7>
2.91906

>  <vsurf_IW8>
0

>  <vsurf_R>
1.42839

>  <vsurf_S>
575.037

>  <vsurf_V>
821.375

>  <vsurf_W1>
1435

>  <vsurf_W2>
887.375

>  <vsurf_W3>
426.75

>  <vsurf_W4>
134.875

>  <vsurf_W5>
43.375

>  <vsurf_W6>
9.5

>  <vsurf_W7>
1.125

>  <vsurf_W8>
0

>  <vsurf_Wp1>
1091.13

>  <vsurf_Wp2>
483.5

>  <vsurf_Wp3>
100.625

>  <vsurf_Wp4>
24

>  <vsurf_Wp5>
9.875

>  <vsurf_Wp6>
2.5

>  <vsurf_Wp7>
0.125

>  <vsurf_Wp8>
0

>  <dens>
1.07254

>  <glob>
0.0544068

>  <std_dim1>
4.85048

>  <std_dim2>
1.33007

>  <std_dim3>
1.13139

>  <vol>
351.875

>  <logP(o/w)>
1.775

$$$$
D7.cdx
  MOE2008           3D

 49 52  0  0  0  0  0  0  0  0999 V2000
   -8.2800   17.4280    0.4980 C   0  0  0  0  0  0  0  0  0  0  0  0
   -9.1550   18.0570    0.3540 H   0  0  0  0  0  0  0  0  0  0  0  0
   -8.3040   16.4180    1.4570 C   0  0  0  0  0  0  0  0  0  0  0  0
   -9.1990   16.2670    2.0540 H   0  0  0  0  0  0  0  0  0  0  0  0
   -7.1950   15.5920    1.6620 C   0  0  0  0  0  0  0  0  0  0  0  0
   -7.2210   14.8040    2.4080 H   0  0  0  0  0  0  0  0  0  0  0  0
   -6.0620   15.8170    0.8700 C   0  0  0  0  0  0  0  0  0  0  0  0
   -6.0030   16.8200   -0.1000 C   0  0  0  0  0  0  0  0  0  0  0  0
   -7.1390   17.6400   -0.2840 C   0  0  0  0  0  0  0  0  0  0  0  0
   -7.1340   18.4300   -1.0300 H   0  0  0  0  0  0  0  0  0  0  0  0
   -4.8520   15.1660    0.8540 N   0  0  0  0  0  0  0  0  0  0  0  0
   -4.6100   14.3900    1.4550 H   0  0  0  0  0  0  0  0  0  0  0  0
   -4.0290   15.7200   -0.0900 C   0  0  0  0  0  0  0  0  0  0  0  0
   -3.0330   15.3230   -0.2390 H   0  0  0  0  0  0  0  0  0  0  0  0
   -4.7070   16.7540   -0.7100 C   0  0  0  0  0  0  0  0  0  0  0  0
   -4.1800   17.5980   -1.7750 C   0  0  0  0  0  0  0  0  0  0  0  0
   -2.7820   17.3500   -2.3130 C   0  0  0  0  0  0  0  0  0  0  0  0
   -1.7510   18.1090   -1.7630 N   0  0  0  0  0  0  0  0  0  0  0  0
   -0.3770   17.8710   -2.2060 C   0  0  0  0  0  0  0  0  0  0  0  0
   -0.2770   16.8540   -2.6000 H   0  0  0  0  0  0  0  0  0  0  0  0
   -0.1880   18.5650   -3.0330 H   0  0  0  0  0  0  0  0  0  0  0  0
    0.6360   18.1010   -1.0810 C   0  0  0  0  0  0  0  0  0  0  0  0
    1.6530   17.9630   -1.4600 H   0  0  0  0  0  0  0  0  0  0  0  0
    0.4660   17.3710   -0.2820 H   0  0  0  0  0  0  0  0  0  0  0  0
    0.5100   19.4350   -0.4730 N   0  0  0  0  0  0  0  0  0  0  0  0
   -0.7710   20.1230   -0.6500 C   0  0  0  0  0  0  0  0  0  0  0  0
   -0.9360   20.8320    0.1680 H   0  0  0  0  0  0  0  0  0  0  0  0
   -0.6870   20.7040   -1.5760 H   0  0  0  0  0  0  0  0  0  0  0  0
   -1.9530   19.1520   -0.7490 C   0  0  0  0  0  0  0  0  0  0  0  0
   -2.8720   19.7060   -0.9630 H   0  0  0  0  0  0  0  0  0  0  0  0
   -2.0910   18.6340    0.2080 H   0  0  0  0  0  0  0  0  0  0  0  0
    1.5230   20.0900    0.2250 C   0  0  0  0  0  0  0  0  0  0  0  0
    2.7780   19.3590    0.5080 C   0  0  0  0  0  0  0  0  0  0  0  0
    2.7700   18.2190    1.3160 C   0  0  0  0  0  0  0  0  0  0  0  0
    1.8430   17.8500    1.7460 H   0  0  0  0  0  0  0  0  0  0  0  0
    3.9680   17.5540    1.5810 C   0  0  0  0  0  0  0  0  0  0  0  0
    3.9580   16.6610    2.2010 H   0  0  0  0  0  0  0  0  0  0  0  0
    5.1780   18.0380    1.0620 C   0  0  0  0  0  0  0  0  0  0  0  0
    5.1720   19.1880    0.2600 C   0  0  0  0  0  0  0  0  0  0  0  0
    6.1020   19.5720   -0.1540 H   0  0  0  0  0  0  0  0  0  0  0  0
    3.9770   19.8570   -0.0080 C   0  0  0  0  0  0  0  0  0  0  0  0
    3.9830   20.7570   -0.6170 H   0  0  0  0  0  0  0  0  0  0  0  0
   -4.8110   18.5250   -2.2770 O   0  0  0  0  0  0  0  0  0  0  0  0
   -2.6510   16.4890   -3.1760 O   0  0  0  0  0  0  0  0  0  0  0  0
    1.4490   21.2510    0.6160 O   0  0  0  0  0  0  0  0  0  0  0  0
    6.4600   17.3010    1.3200 C   0  0  0  0  0  0  0  0  0  0  0  0
    6.6230   16.5510    0.5400 H   0  0  0  0  0  0  0  0  0  0  0  0
    6.4340   16.8010    2.2930 H   0  0  0  0  0  0  0  0  0  0  0  0
    7.3110   17.9900    1.3320 H   0  0  0  0  0  0  0  0  0  0  0  0
  1  2  1  0  0  0  0
  1  3  1  0  0  0  0
  1  9  2  0  0  0  0
  3  4  1  0  0  0  0
  3  5  2  0  0  0  0
  5  6  1  0  0  0  0
  5  7  1  0  0  0  0
  7  8  2  0  0  0  0
  7 11  1  0  0  0  0
  8  9  1  0  0  0  0
  8 15  1  0  0  0  0
  9 10  1  0  0  0  0
 11 12  1  0  0  0  0
 11 13  1  0  0  0  0
 13 14  1  0  0  0  0
 13 15  2  0  0  0  0
 15 16  1  0  0  0  0
 16 17  1  0  0  0  0
 16 43  2  0  0  0  0
 17 18  1  0  0  0  0
 17 44  2  0  0  0  0
 18 19  1  0  0  0  0
 18 29  1  0  0  0  0
 19 20  1  0  0  0  0
 19 21  1  0  0  0  0
 19 22  1  0  0  0  0
 22 23  1  0  0  0  0
 22 24  1  0  0  0  0
 22 25  1  0  0  0  0
 25 26  1  0  0  0  0
 25 32  1  0  0  0  0
 26 27  1  0  0  0  0
 26 28  1  0  0  0  0
 26 29  1  0  0  0  0
 29 30  1  0  0  0  0
 29 31  1  0  0  0  0
 32 33  1  0  0  0  0
 32 45  2  0  0  0  0
 33 34  1  0  0  0  0
 33 41  2  0  0  0  0
 34 35  1  0  0  0  0
 34 36  2  0  0  0  0
 36 37  1  0  0  0  0
 36 38  1  0  0  0  0
 38 39  2  0  0  0  0
 38 46  1  0  0  0  0
 39 40  1  0  0  0  0
 39 41  1  0  0  0  0
 41 42  1  0  0  0  0
 46 47  1  0  0  0  0
 46 48  1  0  0  0  0
 46 49  1  0  0  0  0
M  END
>  <Activity>
5.0767

>  <AM1_dipole>
5.64768

>  <AM1_E>
-108060

>  <AM1_Eele>
-818641

>  <AM1_HF>
-4.6706

>  <AM1_HOMO>
-8.87201

>  <AM1_IP>
8.87201

>  <AM1_LUMO>
-0.48218

>  <diameter>
16

>  <petitjean>
0.5

>  <petitjeanSC>
1

>  <radius>
8

>  <VDistEq>
3.71892

>  <VDistMa>
9.28576

>  <weinerPath>
2264

>  <weinerPol>
46

>  <BCUT_PEOE_0>
-2.71193

>  <BCUT_PEOE_1>
-0.638983

>  <BCUT_PEOE_2>
0.655267

>  <BCUT_PEOE_3>
2.65028

>  <BCUT_SLOGP_0>
-2.86002

>  <BCUT_SLOGP_1>
-0.53808

>  <BCUT_SLOGP_2>
0.719728

>  <BCUT_SLOGP_3>
2.50458

>  <BCUT_SMR_0>
-2.43205

>  <BCUT_SMR_1>
-0.43318

>  <BCUT_SMR_2>
0.825932

>  <BCUT_SMR_3>
2.92034

>  <GCUT_PEOE_0>
-0.860602

>  <GCUT_PEOE_1>
-0.403687

>  <GCUT_PEOE_2>
0.0804219

>  <GCUT_PEOE_3>
2.66824

>  <GCUT_SLOGP_0>
-0.976485

>  <GCUT_SLOGP_1>
-0.335825

>  <GCUT_SLOGP_2>
0.142683

>  <GCUT_SLOGP_3>
2.65559

>  <GCUT_SMR_0>
-0.508931

>  <GCUT_SMR_1>
-0.216057

>  <GCUT_SMR_2>
0.193051

>  <GCUT_SMR_3>
2.94027

>  <a_aro>
15

>  <a_count>
49

>  <a_IC>
75.2648

>  <a_ICM>
1.53602

>  <a_nH>
21

>  <b_1rotN>
5

>  <b_1rotR>
0.16129

>  <b_ar>
16

>  <b_count>
52

>  <b_double>
3

>  <b_rotN>
5

>  <b_rotR>
0.16129

>  <b_single>
33

>  <b_triple>
0

>  <chi0v>
15.6438

>  <chi0v_C>
13.0246

>  <chi1v>
9.30056

>  <chi1v_C>
6.43739

>  <chiral>
0

>  <chiral_u>
0

>  <nmol>
1

>  <reactive>
0

>  <rings>
4

>  <Weight>
375.428

>  <a_heavy>
28

>  <a_nB>
0

>  <a_nBr>
0

>  <a_nC>
22

>  <a_nCl>
0

>  <a_nF>
0

>  <a_nI>
0

>  <a_nN>
3

>  <a_nO>
3

>  <a_nP>
0

>  <a_nS>
0

>  <b_heavy>
31

>  <chi0>
19.673

>  <chi0_C>
14.8112

>  <chi1>
13.5417

>  <chi1_C>
8.60176

>  <FCharge>
0

>  <VAdjEq>
0.398935

>  <VAdjMa>
5.9542

>  <zagreb>
150

>  <balabanJ>
1.26157

>  <PEOE_PC+>
2.35502

>  <PEOE_PC->
-2.35502

>  <PEOE_RPC+>
0.125307

>  <PEOE_RPC->
0.152842

>  <PEOE_VSA+0>
93.428

>  <PEOE_VSA+1>
74.7201

>  <PEOE_VSA+2>
0

>  <PEOE_VSA+3>
8.61901

>  <PEOE_VSA+4>
0

>  <PEOE_VSA+5>
34.3576

>  <PEOE_VSA+6>
0

>  <PEOE_VSA-0>
55.5124

>  <PEOE_VSA-1>
63.4831

>  <PEOE_VSA-2>
0

>  <PEOE_VSA-3>
0

>  <PEOE_VSA-4>
0

>  <PEOE_VSA-5>
40.7008

>  <PEOE_VSA-6>
0.136891

>  <PEOE_VSA_FHYD>
0.797294

>  <PEOE_VSA_FNEG>
0.430866

>  <PEOE_VSA_FPNEG>
0.110087

>  <PEOE_VSA_FPOL>
0.202706

>  <PEOE_VSA_FPOS>
0.569134

>  <PEOE_VSA_FPPOS>
0.0926186

>  <PEOE_VSA_HYD>
295.763

>  <PEOE_VSA_NEG>
159.833

>  <PEOE_VSA_PNEG>
40.8377

>  <PEOE_VSA_POL>
75.1952

>  <PEOE_VSA_POS>
211.125

>  <PEOE_VSA_PPOS>
34.3576

>  <PC+>
4.913

>  <PC->
-4.914

>  <Q_PC+>
4.913

>  <Q_PC->
-4.914

>  <Q_RPC+>
0.133523

>  <Q_RPC->
0.13431

>  <Q_VSA_FHYD>
0.587035

>  <Q_VSA_FNEG>
0.449115

>  <Q_VSA_FPNEG>
0.15486

>  <Q_VSA_FPOL>
0.412965

>  <Q_VSA_FPOS>
0.550885

>  <Q_VSA_FPPOS>
0.258105

>  <Q_VSA_HYD>
217.765

>  <Q_VSA_NEG>
166.603

>  <Q_VSA_PNEG>
57.4467

>  <Q_VSA_POL>
153.193

>  <Q_VSA_POS>
204.355

>  <Q_VSA_PPOS>
95.7459

>  <RPC+>
0.133523

>  <RPC->
0.13431

>  <lip_acc>
6

>  <lip_don>
1

>  <lip_druglike>
1

>  <lip_violation>
0

>  <opr_brigid>
22

>  <opr_leadlike>
1

>  <opr_nring>
4

>  <opr_nrot>
5

>  <opr_violation>
0

>  <E>
95.5281

>  <E_ang>
6.8237

>  <E_ele>
31.2553

>  <E_nb>
78.3082

>  <E_oop>
0.0502628

>  <E_sol>
-21.2281

>  <E_stb>
0.280072

>  <E_str>
6.06998

>  <E_strain>
0.00451929

>  <E_tor>
3.99586

>  <E_vdw>
47.0529

>  <E_rele>
0

>  <E_rnb>
2.4869e-014

>  <E_rsol>
2.4869e-014

>  <E_rvdw>
0

>  <Kier1>
21.2404

>  <Kier2>
9.42769

>  <Kier3>
4.69444

>  <KierA1>
14.5633

>  <KierA2>
6.36575

>  <KierA3>
3.13532

>  <KierFlex>
3.31095

>  <logS>
-4.50351

>  <MNDO_dipole>
6.18254

>  <MNDO_E>
-108299

>  <MNDO_Eele>
-811106

>  <MNDO_HF>
-23.1148

>  <MNDO_HOMO>
-8.83524

>  <MNDO_IP>
8.83524

>  <MNDO_LUMO>
-0.48241

>  <apol>
58.4287

>  <bpol>
30.4513

>  <mr>
10.7264

>  <dipole>
1.55156

>  <dipoleX>
0.67723

>  <dipoleY>
-1.12853

>  <dipoleZ>
0.821657

>  <pmi>
8553.36

>  <pmiX>
6961.53

>  <pmiY>
898.253

>  <pmiZ>
693.578

>  <rgyr>
4.77315

>  <a_acc>
3

>  <a_acid>
0

>  <a_base>
0

>  <a_don>
1

>  <a_hyd>
19

>  <vsa_acc>
40.7008

>  <vsa_acid>
0

>  <vsa_base>
0

>  <vsa_don>
5.68258

>  <vsa_hyd>
272.908

>  <vsa_other>
34.3576

>  <vsa_pol>
46.3833

>  <PM3_dipole>
6.37456

>  <PM3_E>
-99095

>  <PM3_Eele>
-800987

>  <PM3_HF>
-40.7635

>  <PM3_HOMO>
-8.82013

>  <PM3_IP>
8.82013

>  <PM3_LUMO>
-0.5431

>  <SlogP>
2.64362

>  <SlogP_VSA0>
0

>  <SlogP_VSA1>
22.4538

>  <SlogP_VSA2>
40.6477

>  <SlogP_VSA3>
73.7583

>  <SlogP_VSA4>
57.2812

>  <SlogP_VSA5>
0

>  <SlogP_VSA6>
0

>  <SlogP_VSA7>
163.077

>  <SlogP_VSA8>
0

>  <SlogP_VSA9>
33.326

>  <SMR>
10.6292

>  <SMR_VSA0>
71.5866

>  <SMR_VSA1>
6.24863

>  <SMR_VSA2>
16.7855

>  <SMR_VSA3>
9.55672

>  <SMR_VSA4>
4.7171

>  <SMR_VSA5>
158.36

>  <SMR_VSA6>
89.9635

>  <SMR_VSA7>
33.326

>  <ASA>
650.657

>  <ASA+>
247.5

>  <ASA->
236.681

>  <ASA_H>
495.757

>  <ASA_P>
154.9

>  <CASA+>
1215.97

>  <CASA->
1163.05

>  <DASA>
10.8187

>  <DCASA>
52.9157

>  <FASA+>
0.380385

>  <FASA->
0.363758

>  <FASA_H>
0.761933

>  <FASA_P>
0.238067

>  <FCASA+>
1.86883

>  <FCASA->
1.78751

>  <VSA>
397.612

>  <TPSA>
73.48

>  <density>
0.736031

>  <vdw_area>
370.958

>  <vdw_vol>
510.071

>  <vsurf_A>
3.01203

>  <vsurf_CP>
0.148742

>  <vsurf_CW1>
2.65273

>  <vsurf_CW2>
2.0393

>  <vsurf_CW3>
1.24356

>  <vsurf_CW4>
0.516934

>  <vsurf_CW5>
0.2075

>  <vsurf_CW6>
0.0625596

>  <vsurf_CW7>
0.0041424

>  <vsurf_CW8>
0

>  <vsurf_D1>
914.75

>  <vsurf_D2>
546.25

>  <vsurf_D3>
411

>  <vsurf_D4>
352

>  <vsurf_D5>
307

>  <vsurf_D6>
241.375

>  <vsurf_D7>
140.75

>  <vsurf_D8>
81.375

>  <vsurf_DD12>
4.63681

>  <vsurf_DD13>
1.65831

>  <vsurf_DD23>
4.15331

>  <vsurf_DW12>
0.5

>  <vsurf_DW13>
5.33854

>  <vsurf_DW23>
5.72276

>  <vsurf_EDmin1>
-2.6308

>  <vsurf_EDmin2>
-2.62658

>  <vsurf_EDmin3>
-2.62499

>  <vsurf_EWmin1>
-5.23481

>  <vsurf_EWmin2>
-5.11134

>  <vsurf_EWmin3>
-5.08627

>  <vsurf_G>
1.35297

>  <vsurf_HB1>
316.25

>  <vsurf_HB2>
341.875

>  <vsurf_HB3>
288.75

>  <vsurf_HB4>
102.625

>  <vsurf_HB5>
32.125

>  <vsurf_HB6>
7.5

>  <vsurf_HB7>
1.25

>  <vsurf_HB8>
0

>  <vsurf_HL1>
0.0933698

>  <vsurf_HL2>
0.0252131

>  <vsurf_ID1>
0.961591

>  <vsurf_ID2>
1.0124

>  <vsurf_ID3>
1.12477

>  <vsurf_ID4>
1.26712

>  <vsurf_ID5>
1.37118

>  <vsurf_ID6>
1.22946

>  <vsurf_ID7>
1.22006

>  <vsurf_ID8>
0.939246

>  <vsurf_IW1>
0.116391

>  <vsurf_IW2>
0.73046

>  <vsurf_IW3>
1.39704

>  <vsurf_IW4>
1.9576

>  <vsurf_IW5>
1.90817

>  <vsurf_IW6>
2.44276

>  <vsurf_IW7>
3.6645

>  <vsurf_IW8>
0

>  <vsurf_R>
1.44756

>  <vsurf_S>
586.937

>  <vsurf_V>
849.625

>  <vsurf_W1>
1384.88

>  <vsurf_W2>
793.875

>  <vsurf_W3>
373.125

>  <vsurf_W4>
118.75

>  <vsurf_W5>
38.375

>  <vsurf_W6>
8.875

>  <vsurf_W7>
1.25

>  <vsurf_W8>
0

>  <vsurf_Wp1>
1068.63

>  <vsurf_Wp2>
452

>  <vsurf_Wp3>
84.375

>  <vsurf_Wp4>
16.125

>  <vsurf_Wp5>
6.25

>  <vsurf_Wp6>
1.375

>  <vsurf_Wp7>
0

>  <vsurf_Wp8>
0

>  <dens>
1.03175

>  <glob>
0.0600866

>  <std_dim1>
4.70972

>  <std_dim2>
1.70563

>  <std_dim3>
1.15447

>  <vol>
363.875

>  <logP(o/w)>
2.381

$$$$
D7.cdx
  MOE2008           3D

 58 61  0  0  0  0  0  0  0  0999 V2000
   -8.8490   14.7850   -0.4000 C   0  0  0  0  0  0  0  0  0  0  0  0
   -9.4610   15.6330   -0.6970 H   0  0  0  0  0  0  0  0  0  0  0  0
   -9.4140   13.7480    0.3360 C   0  0  0  0  0  0  0  0  0  0  0  0
  -10.4660   13.7940    0.6080 H   0  0  0  0  0  0  0  0  0  0  0  0
   -8.6510   12.6440    0.7310 C   0  0  0  0  0  0  0  0  0  0  0  0
   -9.0980   11.8370    1.3020 H   0  0  0  0  0  0  0  0  0  0  0  0
   -7.3010   12.6220    0.3590 C   0  0  0  0  0  0  0  0  0  0  0  0
   -6.7020   13.6450   -0.3790 C   0  0  0  0  0  0  0  0  0  0  0  0
   -7.4970   14.7470   -0.7630 C   0  0  0  0  0  0  0  0  0  0  0  0
   -7.0680   15.5630   -1.3390 H   0  0  0  0  0  0  0  0  0  0  0  0
   -6.3330   11.6780    0.6050 N   0  0  0  0  0  0  0  0  0  0  0  0
   -6.4850   10.8210    1.1190 H   0  0  0  0  0  0  0  0  0  0  0  0
   -5.1420   12.0680    0.0520 C   0  0  0  0  0  0  0  0  0  0  0  0
   -4.2680   11.4350    0.1490 H   0  0  0  0  0  0  0  0  0  0  0  0
   -5.3280   13.2870   -0.5750 C   0  0  0  0  0  0  0  0  0  0  0  0
   -4.3030   14.0390   -1.2870 C   0  0  0  0  0  0  0  0  0  0  0  0
   -2.8960   13.4850   -1.3940 C   0  0  0  0  0  0  0  0  0  0  0  0
   -1.9440   13.9960   -0.5190 N   0  0  0  0  0  0  0  0  0  0  0  0
   -0.5720   13.4880   -0.5620 C   0  0  0  0  0  0  0  0  0  0  0  0
   -0.4050   12.9490    0.3790 H   0  0  0  0  0  0  0  0  0  0  0  0
   -0.4410   12.7730   -1.3810 H   0  0  0  0  0  0  0  0  0  0  0  0
    0.4450   14.6300   -0.6970 C   0  0  0  0  0  0  0  0  0  0  0  0
    0.3560   15.1000   -1.6840 H   0  0  0  0  0  0  0  0  0  0  0  0
    1.4510   14.2150   -0.6070 H   0  0  0  0  0  0  0  0  0  0  0  0
    0.1970   15.6840    0.3010 N   0  0  0  0  0  0  0  0  0  0  0  0
   -1.1820   16.1850    0.3400 C   0  0  0  0  0  0  0  0  0  0  0  0
   -1.3190   16.9090    1.1480 H   0  0  0  0  0  0  0  0  0  0  0  0
   -1.3530   16.7100   -0.6080 H   0  0  0  0  0  0  0  0  0  0  0  0
   -2.1870   15.0370    0.4900 C   0  0  0  0  0  0  0  0  0  0  0  0
   -3.2060   15.4260    0.4370 H   0  0  0  0  0  0  0  0  0  0  0  0
   -2.0670   14.5590    1.4700 H   0  0  0  0  0  0  0  0  0  0  0  0
    1.1360   16.2150    1.1810 C   0  0  0  0  0  0  0  0  0  0  0  0
    2.5560   15.8360    1.0190 C   0  0  0  0  0  0  0  0  0  0  0  0
    3.2050   15.1820    2.0630 C   0  0  0  0  0  0  0  0  0  0  0  0
    2.6710   14.9380    2.9770 H   0  0  0  0  0  0  0  0  0  0  0  0
    4.5530   14.8380    1.9270 C   0  0  0  0  0  0  0  0  0  0  0  0
    5.0340   14.3230    2.7550 H   0  0  0  0  0  0  0  0  0  0  0  0
    5.2800   15.1490    0.7580 C   0  0  0  0  0  0  0  0  0  0  0  0
    4.6000   15.8330   -0.2680 C   0  0  0  0  0  0  0  0  0  0  0  0
    5.1020   16.1150   -1.1890 H   0  0  0  0  0  0  0  0  0  0  0  0
    3.2520   16.1820   -0.1390 C   0  0  0  0  0  0  0  0  0  0  0  0
    2.7560   16.7220   -0.9420 H   0  0  0  0  0  0  0  0  0  0  0  0
   -4.5090   15.1310   -1.8130 O   0  0  0  0  0  0  0  0  0  0  0  0
   -2.6960   12.6170   -2.2370 O   0  0  0  0  0  0  0  0  0  0  0  0
    0.8660   16.9830    2.1000 O   0  0  0  0  0  0  0  0  0  0  0  0
    6.7630   14.7490    0.6450 C   0  0  0  0  0  0  0  0  0  0  0  0
    7.4180   15.1450   -0.6980 C   0  0  0  0  0  0  0  0  0  0  0  0
    6.9150   14.6710   -1.5480 H   0  0  0  0  0  0  0  0  0  0  0  0
    8.4690   14.8350   -0.7310 H   0  0  0  0  0  0  0  0  0  0  0  0
    7.3990   16.2310   -0.8520 H   0  0  0  0  0  0  0  0  0  0  0  0
    6.8990   13.2170    0.7830 C   0  0  0  0  0  0  0  0  0  0  0  0
    7.9430   12.9010    0.6700 H   0  0  0  0  0  0  0  0  0  0  0  0
    6.3090   12.6980    0.0190 H   0  0  0  0  0  0  0  0  0  0  0  0
    6.5610   12.8560    1.7610 H   0  0  0  0  0  0  0  0  0  0  0  0
    7.5720   15.4350    1.7680 C   0  0  0  0  0  0  0  0  0  0  0  0
    7.2450   15.1220    2.7660 H   0  0  0  0  0  0  0  0  0  0  0  0
    7.4720   16.5260    1.7160 H   0  0  0  0  0  0  0  0  0  0  0  0
    8.6380   15.1940    1.6900 H   0  0  0  0  0  0  0  0  0  0  0  0
  1  2  1  0  0  0  0
  1  3  1  0  0  0  0
  1  9  2  0  0  0  0
  3  4  1  0  0  0  0
  3  5  2  0  0  0  0
  5  6  1  0  0  0  0
  5  7  1  0  0  0  0
  7  8  2  0  0  0  0
  7 11  1  0  0  0  0
  8  9  1  0  0  0  0
  8 15  1  0  0  0  0
  9 10  1  0  0  0  0
 11 12  1  0  0  0  0
 11 13  1  0  0  0  0
 13 14  1  0  0  0  0
 13 15  2  0  0  0  0
 15 16  1  0  0  0  0
 16 17  1  0  0  0  0
 16 43  2  0  0  0  0
 17 18  1  0  0  0  0
 17 44  2  0  0  0  0
 18 19  1  0  0  0  0
 18 29  1  0  0  0  0
 19 20  1  0  0  0  0
 19 21  1  0  0  0  0
 19 22  1  0  0  0  0
 22 23  1  0  0  0  0
 22 24  1  0  0  0  0
 22 25  1  0  0  0  0
 25 26  1  0  0  0  0
 25 32  1  0  0  0  0
 26 27  1  0  0  0  0
 26 28  1  0  0  0  0
 26 29  1  0  0  0  0
 29 30  1  0  0  0  0
 29 31  1  0  0  0  0
 32 33  1  0  0  0  0
 32 45  2  0  0  0  0
 33 34  1  0  0  0  0
 33 41  2  0  0  0  0
 34 35  1  0  0  0  0
 34 36  2  0  0  0  0
 36 37  1  0  0  0  0
 36 38  1  0  0  0  0
 38 39  2  0  0  0  0
 38 46  1  0  0  0  0
 39 40  1  0  0  0  0
 39 41  1  0  0  0  0
 41 42  1  0  0  0  0
 46 47  1  0  0  0  0
 46 51  1  0  0  0  0
 46 55  1  0  0  0  0
 47 48  1  0  0  0  0
 47 49  1  0  0  0  0
 47 50  1  0  0  0  0
 51 52  1  0  0  0  0
 51 53  1  0  0  0  0
 51 54  1  0  0  0  0
 55 56  1  0  0  0  0
 55 57  1  0  0  0  0
 55 58  1  0  0  0  0
M  END
>  <Activity>
5.0457

>  <AM1_dipole>
4.78096

>  <AM1_E>
-118833

>  <AM1_Eele>
-963392

>  <AM1_HF>
-17.0318

>  <AM1_HOMO>
-8.85253

>  <AM1_IP>
8.85253

>  <AM1_LUMO>
-0.45323

>  <diameter>
17

>  <petitjean>
0.470588

>  <petitjeanSC>
0.888889

>  <radius>
9

>  <VDistEq>
3.87516

>  <VDistMa>
9.57275

>  <weinerPath>
3077

>  <weinerPol>
52

>  <BCUT_PEOE_0>
-2.71217

>  <BCUT_PEOE_1>
-0.534504

>  <BCUT_PEOE_2>
0.590663

>  <BCUT_PEOE_3>
2.65063

>  <BCUT_SLOGP_0>
-2.86003

>  <BCUT_SLOGP_1>
-0.430564

>  <BCUT_SLOGP_2>
0.675737

>  <BCUT_SLOGP_3>
2.67895

>  <BCUT_SMR_0>
-2.43224

>  <BCUT_SMR_1>
-0.392467

>  <BCUT_SMR_2>
0.72685

>  <BCUT_SMR_3>
2.92097

>  <GCUT_PEOE_0>
-0.860602

>  <GCUT_PEOE_1>
-0.386732

>  <GCUT_PEOE_2>
0.0615559

>  <GCUT_PEOE_3>
2.75042

>  <GCUT_SLOGP_0>
-0.976485

>  <GCUT_SLOGP_1>
-0.292606

>  <GCUT_SLOGP_2>
0.12655

>  <GCUT_SLOGP_3>
2.76772

>  <GCUT_SMR_0>
-0.521592

>  <GCUT_SMR_1>
-0.182342

>  <GCUT_SMR_2>
0.165344

>  <GCUT_SMR_3>
3.01837

>  <a_aro>
15

>  <a_count>
58

>  <a_IC>
85.7748

>  <a_ICM>
1.47888

>  <a_nH>
27

>  <b_1rotN>
5

>  <b_1rotR>
0.147059

>  <b_ar>
16

>  <b_count>
61

>  <b_double>
3

>  <b_rotN>
6

>  <b_rotR>
0.176471

>  <b_single>
42

>  <b_triple>
0

>  <chi0v>
18.1438

>  <chi0v_C>
15.5246

>  <chi1v>
10.5506

>  <chi1v_C>
7.68739

>  <chiral>
0

>  <chiral_u>
0

>  <nmol>
1

>  <reactive>
0

>  <rings>
4

>  <Weight>
417.509

>  <a_heavy>
31

>  <a_nB>
0

>  <a_nBr>
0

>  <a_nC>
25

>  <a_nCl>
0

>  <a_nF>
0

>  <a_nI>
0

>  <a_nN>
3

>  <a_nO>
3

>  <a_nP>
0

>  <a_nS>
0

>  <b_heavy>
34

>  <chi0>
22.173

>  <chi0_C>
17.3112

>  <chi1>
14.753

>  <chi1_C>
9.81308

>  <FCharge>
0

>  <VAdjEq>
0.368752

>  <VAdjMa>
6.08746

>  <zagreb>
168

>  <balabanJ>
1.23848

>  <PEOE_PC+>
2.48605

>  <PEOE_PC->
-2.48605

>  <PEOE_RPC+>
0.118702

>  <PEOE_RPC->
0.144786

>  <PEOE_VSA+0>
119.02

>  <PEOE_VSA+1>
74.7201

>  <PEOE_VSA+2>
0

>  <PEOE_VSA+3>
8.61901

>  <PEOE_VSA+4>
0

>  <PEOE_VSA+5>
34.3576

>  <PEOE_VSA+6>
0

>  <PEOE_VSA-0>
38.9733

>  <PEOE_VSA-1>
117.518

>  <PEOE_VSA-2>
0

>  <PEOE_VSA-3>
0

>  <PEOE_VSA-4>
0

>  <PEOE_VSA-5>
40.7008

>  <PEOE_VSA-6>
0.136891

>  <PEOE_VSA_FHYD>
0.826757

>  <PEOE_VSA_FNEG>
0.454626

>  <PEOE_VSA_FPNEG>
0.0940861

>  <PEOE_VSA_FPOL>
0.173243

>  <PEOE_VSA_FPOS>
0.545374

>  <PEOE_VSA_FPPOS>
0.0791566

>  <PEOE_VSA_HYD>
358.85

>  <PEOE_VSA_NEG>
197.328

>  <PEOE_VSA_PNEG>
40.8377

>  <PEOE_VSA_POL>
75.1952

>  <PEOE_VSA_POS>
236.717

>  <PEOE_VSA_PPOS>
34.3576

>  <PC+>
4.913

>  <PC->
-4.914

>  <Q_PC+>
4.913

>  <Q_PC->
-4.914

>  <Q_RPC+>
0.133523

>  <Q_RPC->
0.13431

>  <Q_VSA_FHYD>
0.647059

>  <Q_VSA_FNEG>
0.383837

>  <Q_VSA_FPNEG>
0.132352

>  <Q_VSA_FPOL>
0.352941

>  <Q_VSA_FPOS>
0.616163

>  <Q_VSA_FPPOS>
0.22059

>  <Q_VSA_HYD>
280.853

>  <Q_VSA_NEG>
166.603

>  <Q_VSA_PNEG>
57.4467

>  <Q_VSA_POL>
153.193

>  <Q_VSA_POS>
267.443

>  <Q_VSA_PPOS>
95.7459

>  <RPC+>
0.133523

>  <RPC->
0.13431

>  <lip_acc>
6

>  <lip_don>
1

>  <lip_druglike>
1

>  <lip_violation>
0

>  <opr_brigid>
22

>  <opr_leadlike>
1

>  <opr_nring>
4

>  <opr_nrot>
6

>  <opr_violation>
0

>  <E>
110.376

>  <E_ang>
9.36664

>  <E_ele>
30.8431

>  <E_nb>
88.5213

>  <E_oop>
0.0184777

>  <E_sol>
-18.8922

>  <E_stb>
0.618087

>  <E_str>
8.47977

>  <E_strain>
0.00774068

>  <E_tor>
3.37139

>  <E_vdw>
57.6781

>  <E_rele>
0

>  <E_rnb>
-1.06581e-014

>  <E_rsol>
-1.06581e-014

>  <E_rvdw>
0

>  <Kier1>
24.1349

>  <Kier2>
10.092

>  <Kier3>
5.39945

>  <KierA1>
17.2153

>  <KierA2>
7.11111

>  <KierA3>
3.77062

>  <KierFlex>
3.94903

>  <logS>
-6.04917

>  <MNDO_dipole>
4.90779

>  <MNDO_E>
-119106

>  <MNDO_Eele>
-951245

>  <MNDO_HF>
-1.87781

>  <MNDO_HOMO>
-8.8281

>  <MNDO_IP>
8.8281

>  <MNDO_LUMO>
-0.46882

>  <apol>
67.7094

>  <bpol>
37.0106

>  <mr>
12.0668

>  <dipole>
1.1377

>  <dipoleX>
0.381994

>  <dipoleY>
-0.977183

>  <dipoleZ>
0.43995

>  <pmi>
12501.7

>  <pmiX>
11183.1

>  <pmiY>
786.102

>  <pmiZ>
532.589

>  <rgyr>
5.47208

>  <a_acc>
3

>  <a_acid>
0

>  <a_base>
0

>  <a_don>
1

>  <a_hyd>
22

>  <vsa_acc>
40.7008

>  <vsa_acid>
0

>  <vsa_base>
0

>  <vsa_don>
5.68258

>  <vsa_hyd>
331.725

>  <vsa_other>
34.3576

>  <vsa_pol>
46.3833

>  <PM3_dipole>
4.85909

>  <PM3_E>
-109442

>  <PM3_Eele>
-954481

>  <PM3_HF>
-58.3524

>  <PM3_HOMO>
-8.8117

>  <PM3_IP>
8.8117

>  <PM3_LUMO>
-0.53507

>  <SlogP>
3.6327

>  <SlogP_VSA0>
0

>  <SlogP_VSA1>
22.4538

>  <SlogP_VSA2>
40.6477

>  <SlogP_VSA3>
73.7583

>  <SlogP_VSA4>
57.2812

>  <SlogP_VSA5>
0

>  <SlogP_VSA6>
0

>  <SlogP_VSA7>
163.077

>  <SlogP_VSA8>
0

>  <SlogP_VSA9>
99.978

>  <SMR>
12.0255

>  <SMR_VSA0>
71.5866

>  <SMR_VSA1>
6.24863

>  <SMR_VSA2>
16.7855

>  <SMR_VSA3>
9.55672

>  <SMR_VSA4>
4.7171

>  <SMR_VSA5>
158.36

>  <SMR_VSA6>
89.9635

>  <SMR_VSA7>
99.978

>  <ASA>
714.768

>  <ASA+>
211.164

>  <ASA->
219.635

>  <ASA_H>
561.643

>  <ASA_P>
153.124

>  <CASA+>
1037.45

>  <CASA->
1079.29

>  <DASA>
8.47071

>  <DCASA>
41.8362

>  <FASA+>
0.295431

>  <FASA->
0.307282

>  <FASA_H>
0.78577

>  <FASA_P>
0.21423

>  <FCASA+>
1.45145

>  <FCASA->
1.50998

>  <VSA>
453.596

>  <TPSA>
73.48

>  <density>
0.715699

>  <vdw_area>
434.045

>  <vdw_vol>
583.359

>  <vsurf_A>
2.30425

>  <vsurf_CP>
0.155226

>  <vsurf_CW1>
2.59062

>  <vsurf_CW2>
1.92272

>  <vsurf_CW3>
1.11764

>  <vsurf_CW4>
0.466559

>  <vsurf_CW5>
0.182203

>  <vsurf_CW6>
0.0536531

>  <vsurf_CW7>
0.00294532

>  <vsurf_CW8>
0

>  <vsurf_D1>
1020.88

>  <vsurf_D2>
604.625

>  <vsurf_D3>
463.75

>  <vsurf_D4>
407.875

>  <vsurf_D5>
360

>  <vsurf_D6>
288.875

>  <vsurf_D7>
160.75

>  <vsurf_D8>
82.25

>  <vsurf_DD12>
9.16515

>  <vsurf_DD13>
0.5

>  <vsurf_DD23>
9.28709

>  <vsurf_DW12>
0.707107

>  <vsurf_DW13>
0.5

>  <vsurf_DW23>
0.5

>  <vsurf_EDmin1>
-2.64418

>  <vsurf_EDmin2>
-2.60095

>  <vsurf_EDmin3>
-2.59933

>  <vsurf_EWmin1>
-5.62509

>  <vsurf_EWmin2>
-5.53536

>  <vsurf_EWmin3>
-5.24898

>  <vsurf_G>
1.39066

>  <vsurf_HB1>
311.75

>  <vsurf_HB2>
348.125

>  <vsurf_HB3>
290.625

>  <vsurf_HB4>
100.375

>  <vsurf_HB5>
31.875

>  <vsurf_HB6>
7.625

>  <vsurf_HB7>
0.875

>  <vsurf_HB8>
0

>  <vsurf_HL1>
0.0830189

>  <vsurf_HL2>
0.022985

>  <vsurf_ID1>
0.512545

>  <vsurf_ID2>
0.526033

>  <vsurf_ID3>
0.766013

>  <vsurf_ID4>
1.02426

>  <vsurf_ID5>
1.24102

>  <vsurf_ID6>
1.22342

>  <vsurf_ID7>
0.785958

>  <vsurf_ID8>
0.770925

>  <vsurf_IW1>
0.361466

>  <vsurf_IW2>
1.12913

>  <vsurf_IW3>
1.63521

>  <vsurf_IW4>
1.87496

>  <vsurf_IW5>
1.54518

>  <vsurf_IW6>
1.55526

>  <vsurf_IW7>
3.13675

>  <vsurf_IW8>
0

>  <vsurf_R>
1.46653

>  <vsurf_S>
654.181

>  <vsurf_V>
959.375

>  <vsurf_W1>
1464.5

>  <vsurf_W2>
801.375

>  <vsurf_W3>
371.625

>  <vsurf_W4>
118

>  <vsurf_W5>
38.5

>  <vsurf_W6>
9.375

>  <vsurf_W7>
0.875

>  <vsurf_W8>
0

>  <vsurf_Wp1>
1152.75

>  <vsurf_Wp2>
453.25

>  <vsurf_Wp3>
81

>  <vsurf_Wp4>
17.625

>  <vsurf_Wp5>
6.625

>  <vsurf_Wp6>
1.75

>  <vsurf_Wp7>
0

>  <vsurf_Wp8>
0

>  <dens>
1.00544

>  <glob>
0.0429671

>  <std_dim1>
5.67327

>  <std_dim2>
1.39051

>  <std_dim3>
1.17599

>  <vol>
415.25

>  <logP(o/w)>
3.582

$$$$
D7.cdx
  MOE2008           3D

 46 49  0  0  0  0  0  0  0  0999 V2000
   -7.7830   10.9070    0.4960 C   0  0  0  0  0  0  0  0  0  0  0  0
   -8.5220   11.6940    0.3710 H   0  0  0  0  0  0  0  0  0  0  0  0
   -8.0720    9.8080    1.3020 C   0  0  0  0  0  0  0  0  0  0  0  0
   -9.0370    9.7480    1.8000 H   0  0  0  0  0  0  0  0  0  0  0  0
   -7.1430    8.7790    1.4790 C   0  0  0  0  0  0  0  0  0  0  0  0
   -7.3760    7.9240    2.1050 H   0  0  0  0  0  0  0  0  0  0  0  0
   -5.9130    8.8950    0.8200 C   0  0  0  0  0  0  0  0  0  0  0  0
   -5.5900    9.9810    0.0050 C   0  0  0  0  0  0  0  0  0  0  0  0
   -6.5490   11.0050   -0.1560 C   0  0  0  0  0  0  0  0  0  0  0  0
   -6.3350   11.8670   -0.7830 H   0  0  0  0  0  0  0  0  0  0  0  0
   -4.8330    8.0450    0.8100 N   0  0  0  0  0  0  0  0  0  0  0  0
   -4.7910    7.1670    1.3100 H   0  0  0  0  0  0  0  0  0  0  0  0
   -3.8340    8.5590    0.0270 C   0  0  0  0  0  0  0  0  0  0  0  0
   -2.9070    8.0120   -0.0950 H   0  0  0  0  0  0  0  0  0  0  0  0
   -4.2660    9.7620   -0.5010 C   0  0  0  0  0  0  0  0  0  0  0  0
   -3.5050   10.6210   -1.4010 C   0  0  0  0  0  0  0  0  0  0  0  0
   -2.0890   10.2450   -1.7960 C   0  0  0  0  0  0  0  0  0  0  0  0
   -1.0480   10.9350   -1.1760 N   0  0  0  0  0  0  0  0  0  0  0  0
    0.3300   10.5760   -1.5150 C   0  0  0  0  0  0  0  0  0  0  0  0
    0.3880    9.5090   -1.7560 H   0  0  0  0  0  0  0  0  0  0  0  0
    0.5820   11.1330   -2.4270 H   0  0  0  0  0  0  0  0  0  0  0  0
    1.3230   10.9220   -0.4010 C   0  0  0  0  0  0  0  0  0  0  0  0
    2.3410   10.6840   -0.7250 H   0  0  0  0  0  0  0  0  0  0  0  0
    1.1000   10.3220    0.4890 H   0  0  0  0  0  0  0  0  0  0  0  0
    1.2400   12.3330    0.0050 N   0  0  0  0  0  0  0  0  0  0  0  0
   -0.0520   12.9960   -0.1860 C   0  0  0  0  0  0  0  0  0  0  0  0
   -0.1990   13.7510    0.5940 H   0  0  0  0  0  0  0  0  0  0  0  0
    0.0050   13.5220   -1.1470 H   0  0  0  0  0  0  0  0  0  0  0  0
   -1.2300   12.0160   -0.1970 C   0  0  0  0  0  0  0  0  0  0  0  0
   -2.1580   12.5590   -0.3910 H   0  0  0  0  0  0  0  0  0  0  0  0
   -1.3280   11.5330    0.7830 H   0  0  0  0  0  0  0  0  0  0  0  0
    2.2910   13.0830    0.5300 C   0  0  0  0  0  0  0  0  0  0  0  0
    3.5680   12.4120    0.8460 C   0  0  0  0  0  0  0  0  0  0  0  0
    3.6320   11.4090    1.8140 C   0  0  0  0  0  0  0  0  0  0  0  0
    4.8470   10.8130    2.1350 C   0  0  0  0  0  0  0  0  0  0  0  0
    4.8960   10.0310    2.8840 H   0  0  0  0  0  0  0  0  0  0  0  0
    6.0010   11.2440    1.4890 C   0  0  0  0  0  0  0  0  0  0  0  0
    5.9580   12.2600    0.5360 C   0  0  0  0  0  0  0  0  0  0  0  0
    6.8760   12.5870    0.0560 H   0  0  0  0  0  0  0  0  0  0  0  0
    4.7370   12.8550    0.2150 C   0  0  0  0  0  0  0  0  0  0  0  0
    4.6990   13.6600   -0.5160 H   0  0  0  0  0  0  0  0  0  0  0  0
   -3.9540   11.6610   -1.8770 O   0  0  0  0  0  0  0  0  0  0  0  0
   -1.9480    9.3510   -2.6230 O   0  0  0  0  0  0  0  0  0  0  0  0
    2.2360   14.2930    0.7320 O   0  0  0  0  0  0  0  0  0  0  0  0
    2.5270   11.0090    2.4590 F   0  0  0  0  0  0  0  0  0  0  0  0
    7.1760   10.6800    1.7960 F   0  0  0  0  0  0  0  0  0  0  0  0
  1  2  1  0  0  0  0
  1  3  1  0  0  0  0
  1  9  2  0  0  0  0
  3  4  1  0  0  0  0
  3  5  2  0  0  0  0
  5  6  1  0  0  0  0
  5  7  1  0  0  0  0
  7  8  2  0  0  0  0
  7 11  1  0  0  0  0
  8  9  1  0  0  0  0
  8 15  1  0  0  0  0
  9 10  1  0  0  0  0
 11 12  1  0  0  0  0
 11 13  1  0  0  0  0
 13 14  1  0  0  0  0
 13 15  2  0  0  0  0
 15 16  1  0  0  0  0
 16 17  1  0  0  0  0
 16 42  2  0  0  0  0
 17 18  1  0  0  0  0
 17 43  2  0  0  0  0
 18 19  1  0  0  0  0
 18 29  1  0  0  0  0
 19 20  1  0  0  0  0
 19 21  1  0  0  0  0
 19 22  1  0  0  0  0
 22 23  1  0  0  0  0
 22 24  1  0  0  0  0
 22 25  1  0  0  0  0
 25 26  1  0  0  0  0
 25 32  1  0  0  0  0
 26 27  1  0  0  0  0
 26 28  1  0  0  0  0
 26 29  1  0  0  0  0
 29 30  1  0  0  0  0
 29 31  1  0  0  0  0
 32 33  1  0  0  0  0
 32 44  2  0  0  0  0
 33 34  1  0  0  0  0
 33 40  2  0  0  0  0
 34 35  2  0  0  0  0
 34 45  1  0  0  0  0
 35 36  1  0  0  0  0
 35 37  1  0  0  0  0
 37 38  2  0  0  0  0
 37 46  1  0  0  0  0
 38 39  1  0  0  0  0
 38 40  1  0  0  0  0
 40 41  1  0  0  0  0
M  END
>  <Activity>
5.2218

>  <AM1_dipole>
4.1297

>  <AM1_E>
-126205

>  <AM1_Eele>
-890333

>  <AM1_HF>
-59.0143

>  <AM1_HOMO>
-8.87351

>  <AM1_IP>
8.87351

>  <AM1_LUMO>
-0.69222

>  <diameter>
16

>  <petitjean>
0.5

>  <petitjeanSC>
1

>  <radius>
8

>  <VDistEq>
3.72918

>  <VDistMa>
9.39101

>  <weinerPath>
2467

>  <weinerPol>
49

>  <BCUT_PEOE_0>
-2.71139

>  <BCUT_PEOE_1>
-0.639804

>  <BCUT_PEOE_2>
0.655351

>  <BCUT_PEOE_3>
2.651

>  <BCUT_SLOGP_0>
-2.8601

>  <BCUT_SLOGP_1>
-0.508879

>  <BCUT_SLOGP_2>
0.74769

>  <BCUT_SLOGP_3>
2.50283

>  <BCUT_SMR_0>
-2.43204

>  <BCUT_SMR_1>
-0.433377

>  <BCUT_SMR_2>
0.826244

>  <BCUT_SMR_3>
2.92022

>  <GCUT_PEOE_0>
-0.860602

>  <GCUT_PEOE_1>
-0.424842

>  <GCUT_PEOE_2>
0.0615561

>  <GCUT_PEOE_3>
2.65362

>  <GCUT_SLOGP_0>
-0.976486

>  <GCUT_SLOGP_1>
-0.335836

>  <GCUT_SLOGP_2>
0.201878

>  <GCUT_SLOGP_3>
2.62877

>  <GCUT_SMR_0>
-0.508919

>  <GCUT_SMR_1>
-0.215861

>  <GCUT_SMR_2>
0.193275

>  <GCUT_SMR_3>
2.92

>  <a_aro>
15

>  <a_count>
46

>  <a_IC>
80.8485

>  <a_ICM>
1.75758

>  <a_nH>
17

>  <b_1rotN>
5

>  <b_1rotR>
0.15625

>  <b_ar>
16

>  <b_count>
49

>  <b_double>
3

>  <b_rotN>
5

>  <b_rotR>
0.15625

>  <b_single>
30

>  <b_triple>
0

>  <chi0v>
15.3223

>  <chi0v_C>
11.9472

>  <chi1v>
9.0952

>  <chi1v_C>
5.85406

>  <chiral>
0

>  <chiral_u>
0

>  <nmol>
1

>  <reactive>
0

>  <rings>
4

>  <Weight>
397.381

>  <a_heavy>
29

>  <a_nB>
0

>  <a_nBr>
0

>  <a_nC>
21

>  <a_nCl>
0

>  <a_nF>
2

>  <a_nI>
0

>  <a_nN>
3

>  <a_nO>
3

>  <a_nP>
0

>  <a_nS>
0

>  <b_heavy>
32

>  <chi0>
20.5432

>  <chi0_C>
13.6814

>  <chi1>
13.9524

>  <chi1_C>
7.85774

>  <FCharge>
0

>  <VAdjEq>
0.388286

>  <VAdjMa>
6

>  <zagreb>
156

>  <balabanJ>
1.27696

>  <PEOE_PC+>
2.52962

>  <PEOE_PC->
-2.52962

>  <PEOE_RPC+>
0.116658

>  <PEOE_RPC->
0.142292

>  <PEOE_VSA+0>
90.6782

>  <PEOE_VSA+1>
72.6633

>  <PEOE_VSA+2>
18.0417

>  <PEOE_VSA+3>
8.61901

>  <PEOE_VSA+4>
0

>  <PEOE_VSA+5>
34.3576

>  <PEOE_VSA+6>
0

>  <PEOE_VSA-0>
36.7647

>  <PEOE_VSA-1>
36.7647

>  <PEOE_VSA-2>
0

>  <PEOE_VSA-3>
0

>  <PEOE_VSA-4>
23.8173

>  <PEOE_VSA-5>
40.7008

>  <PEOE_VSA-6>
0.136891

>  <PEOE_VSA_FHYD>
0.726895

>  <PEOE_VSA_FNEG>
0.381152

>  <PEOE_VSA_FPNEG>
0.178337

>  <PEOE_VSA_FPOL>
0.273105

>  <PEOE_VSA_FPOS>
0.618848

>  <PEOE_VSA_FPPOS>
0.094768

>  <PEOE_VSA_HYD>
263.532

>  <PEOE_VSA_NEG>
138.184

>  <PEOE_VSA_PNEG>
64.6549

>  <PEOE_VSA_POL>
99.0125

>  <PEOE_VSA_POS>
224.36

>  <PEOE_VSA_PPOS>
34.3576

>  <PC+>
4.999

>  <PC->
-5

>  <Q_PC+>
4.999

>  <Q_PC->
-5

>  <Q_RPC+>
0.131226

>  <Q_RPC->
0.132

>  <Q_VSA_FHYD>
0.577451

>  <Q_VSA_FNEG>
0.485338

>  <Q_VSA_FPNEG>
0.158454

>  <Q_VSA_FPOL>
0.422549

>  <Q_VSA_FPOS>
0.514662

>  <Q_VSA_FPPOS>
0.264094

>  <Q_VSA_HYD>
209.352

>  <Q_VSA_NEG>
175.956

>  <Q_VSA_PNEG>
57.4467

>  <Q_VSA_POL>
153.193

>  <Q_VSA_POS>
186.588

>  <Q_VSA_PPOS>
95.7459

>  <RPC+>
0.131226

>  <RPC->
0.132

>  <lip_acc>
6

>  <lip_don>
1

>  <lip_druglike>
1

>  <lip_violation>
0

>  <opr_brigid>
22

>  <opr_leadlike>
1

>  <opr_nring>
4

>  <opr_nrot>
5

>  <opr_violation>
0

>  <E>
86.9162

>  <E_ang>
7.79348

>  <E_ele>
24.2339

>  <E_nb>
69.2308

>  <E_oop>
0.0490783

>  <E_sol>
-17.2717

>  <E_stb>
0.410265

>  <E_str>
5.5664

>  <E_strain>
0.00401892

>  <E_tor>
3.86617

>  <E_vdw>
44.9969

>  <E_rele>
0

>  <E_rnb>
-2.84217e-014

>  <E_rsol>
-2.84217e-014

>  <E_rvdw>
0

>  <Kier1>
22.2031

>  <Kier2>
9.6465

>  <Kier3>
4.76896

>  <KierA1>
15.2245

>  <KierA2>
6.51766

>  <KierA3>
3.18716

>  <KierFlex>
3.42166

>  <logS>
-4.61955

>  <MNDO_dipole>
4.85266

>  <MNDO_E>
-126148

>  <MNDO_Eele>
-882046

>  <MNDO_HF>
-105.47

>  <MNDO_HOMO>
-8.85861

>  <MNDO_IP>
8.85861

>  <MNDO_LUMO>
-1.02565

>  <apol>
55.1155

>  <bpol>
28.4845

>  <mr>
10.3924

>  <dipole>
1.20049

>  <dipoleX>
0.413405

>  <dipoleY>
-0.938716

>  <dipoleZ>
0.623765

>  <pmi>
9517.11

>  <pmiX>
7952.03

>  <pmiY>
881.661

>  <pmiZ>
683.424

>  <rgyr>
4.89383

>  <a_acc>
3

>  <a_acid>
0

>  <a_base>
0

>  <a_don>
1

>  <a_hyd>
20

>  <vsa_acc>
40.7008

>  <vsa_acid>
0

>  <vsa_base>
0

>  <vsa_don>
5.68258

>  <vsa_hyd>
267.341

>  <vsa_other>
34.3576

>  <vsa_pol>
46.3833

>  <PM3_dipole>
5.04785

>  <PM3_E>
-115236

>  <PM3_Eele>
-868212

>  <PM3_HF>
-105.242

>  <PM3_HOMO>
-8.84262

>  <PM3_IP>
8.84262

>  <PM3_LUMO>
-0.80913

>  <SlogP>
2.6134

>  <SlogP_VSA0>
0

>  <SlogP_VSA1>
22.4538

>  <SlogP_VSA2>
58.8898

>  <SlogP_VSA3>
73.7583

>  <SlogP_VSA4>
54.0956

>  <SlogP_VSA5>
0

>  <SlogP_VSA6>
0

>  <SlogP_VSA7>
145.434

>  <SlogP_VSA8>
0

>  <SlogP_VSA9>
29.9202

>  <SMR>
10.1471

>  <SMR_VSA0>
71.5866

>  <SMR_VSA1>
36.1689

>  <SMR_VSA2>
35.0276

>  <SMR_VSA3>
6.37115

>  <SMR_VSA4>
4.7171

>  <SMR_VSA5>
140.717

>  <SMR_VSA6>
89.9635

>  <SMR_VSA7>
0

>  <ASA>
633.885

>  <ASA+>
238.557

>  <ASA->
286.809

>  <ASA_H>
480.289

>  <ASA_P>
153.596

>  <CASA+>
1192.55

>  <CASA->
1434.05

>  <DASA>
48.2524

>  <DCASA>
241.501

>  <FASA+>
0.376341

>  <FASA->
0.452462

>  <FASA_H>
0.75769

>  <FASA_P>
0.24231

>  <FCASA+>
1.88133

>  <FCASA->
2.26231

>  <VSA>
384.532

>  <TPSA>
73.48

>  <density>
0.807806

>  <vdw_area>
362.544

>  <vdw_vol>
491.926

>  <vsurf_A>
2.51802

>  <vsurf_CP>
0.125429

>  <vsurf_CW1>
2.71913

>  <vsurf_CW2>
2.35186

>  <vsurf_CW3>
1.71282

>  <vsurf_CW4>
0.7021

>  <vsurf_CW5>
0.208801

>  <vsurf_CW6>
0.0665721

>  <vsurf_CW7>
0.00358679

>  <vsurf_CW8>
0

>  <vsurf_D1>
788.375

>  <vsurf_D2>
455.875

>  <vsurf_D3>
334.5

>  <vsurf_D4>
267.25

>  <vsurf_D5>
218.25

>  <vsurf_D6>
166.625

>  <vsurf_D7>
100.625

>  <vsurf_D8>
56.5

>  <vsurf_DD12>
1.11803

>  <vsurf_DD13>
4.38748

>  <vsurf_DD23>
5.24404

>  <vsurf_DW12>
0.707107

>  <vsurf_DW13>
5.59017

>  <vsurf_DW23>
6.10328

>  <vsurf_EDmin1>
-2.64493

>  <vsurf_EDmin2>
-2.59445

>  <vsurf_EDmin3>
-2.56974

>  <vsurf_EWmin1>
-5.39998

>  <vsurf_EWmin2>
-5.2864

>  <vsurf_EWmin3>
-5.28244

>  <vsurf_G>
1.35736

>  <vsurf_HB1>
388.625

>  <vsurf_HB2>
500.375

>  <vsurf_HB3>
420.25

>  <vsurf_HB4>
126.25

>  <vsurf_HB5>
32

>  <vsurf_HB6>
7.75

>  <vsurf_HB7>
0.875

>  <vsurf_HB8>
0

>  <vsurf_HL1>
0.11435

>  <vsurf_HL2>
0.0364827

>  <vsurf_ID1>
1.2874

>  <vsurf_ID2>
1.27006

>  <vsurf_ID3>
1.44006

>  <vsurf_ID4>
1.7512

>  <vsurf_ID5>
2.11548

>  <vsurf_ID6>
2.37867

>  <vsurf_ID7>
1.58079

>  <vsurf_ID8>
1.39945

>  <vsurf_IW1>
0.124662

>  <vsurf_IW2>
0.639354

>  <vsurf_IW3>
0.890908

>  <vsurf_IW4>
1.07632

>  <vsurf_IW5>
2.08085

>  <vsurf_IW6>
2.56584

>  <vsurf_IW7>
3.41445

>  <vsurf_IW8>
0

>  <vsurf_R>
1.42359

>  <vsurf_S>
573.198

>  <vsurf_V>
816

>  <vsurf_W1>
1442.38

>  <vsurf_W2>
944.25

>  <vsurf_W3>
497.75

>  <vsurf_W4>
142.625

>  <vsurf_W5>
38.25

>  <vsurf_W6>
9.75

>  <vsurf_W7>
0.875

>  <vsurf_W8>
0

>  <vsurf_Wp1>
1053.75

>  <vsurf_Wp2>
443.875

>  <vsurf_Wp3>
77.5

>  <vsurf_Wp4>
16.375

>  <vsurf_Wp5>
6.25

>  <vsurf_Wp6>
2

>  <vsurf_Wp7>
0

>  <vsurf_Wp8>
0

>  <dens>
1.12973

>  <glob>
0.064922

>  <std_dim1>
4.60551

>  <std_dim2>
1.51349

>  <std_dim3>
1.17347

>  <vol>
351.75

>  <logP(o/w)>
2.424

$$$$
D7.cdx
  MOE2008           3D

 46 49  0  0  0  0  0  0  0  0999 V2000
   -7.6940    6.9150    1.4820 C   0  0  0  0  0  0  0  0  0  0  0  0
   -8.4930    7.6520    1.5290 H   0  0  0  0  0  0  0  0  0  0  0  0
   -7.7800    5.7520    2.2410 C   0  0  0  0  0  0  0  0  0  0  0  0
   -8.6470    5.5890    2.8770 H   0  0  0  0  0  0  0  0  0  0  0  0
   -6.7710    4.7860    2.1980 C   0  0  0  0  0  0  0  0  0  0  0  0
   -6.8460    3.8790    2.7900 H   0  0  0  0  0  0  0  0  0  0  0  0
   -5.6720    5.0330    1.3660 C   0  0  0  0  0  0  0  0  0  0  0  0
   -5.5520    6.1880    0.5910 C   0  0  0  0  0  0  0  0  0  0  0  0
   -6.5880    7.1460    0.6550 C   0  0  0  0  0  0  0  0  0  0  0  0
   -6.5340    8.0570    0.0650 H   0  0  0  0  0  0  0  0  0  0  0  0
   -4.5550    4.2670    1.1290 N   0  0  0  0  0  0  0  0  0  0  0  0
   -4.3770    3.3670    1.5520 H   0  0  0  0  0  0  0  0  0  0  0  0
   -3.7280    4.9010    0.2390 C   0  0  0  0  0  0  0  0  0  0  0  0
   -2.8010    4.4320   -0.0650 H   0  0  0  0  0  0  0  0  0  0  0  0
   -4.3140    6.0990   -0.1270 C   0  0  0  0  0  0  0  0  0  0  0  0
   -3.7600    7.0660   -1.0670 C   0  0  0  0  0  0  0  0  0  0  0  0
   -2.4000    6.8180   -1.6930 C   0  0  0  0  0  0  0  0  0  0  0  0
   -1.3120    7.4930   -1.1410 N   0  0  0  0  0  0  0  0  0  0  0  0
    0.0250    7.2360   -1.6790 C   0  0  0  0  0  0  0  0  0  0  0  0
    0.0770    6.2190   -2.0830 H   0  0  0  0  0  0  0  0  0  0  0  0
    0.1650    7.9310   -2.5150 H   0  0  0  0  0  0  0  0  0  0  0  0
    1.1260    7.4440   -0.6320 C   0  0  0  0  0  0  0  0  0  0  0  0
    2.1080    7.2880   -1.0900 H   0  0  0  0  0  0  0  0  0  0  0  0
    1.0050    6.7160    0.1770 H   0  0  0  0  0  0  0  0  0  0  0  0
    1.0680    8.7790   -0.0170 N   0  0  0  0  0  0  0  0  0  0  0  0
   -0.2370    9.4470   -0.0190 C   0  0  0  0  0  0  0  0  0  0  0  0
   -0.3180   10.1090    0.8510 H   0  0  0  0  0  0  0  0  0  0  0  0
   -0.2620   10.0780   -0.9160 H   0  0  0  0  0  0  0  0  0  0  0  0
   -1.4100    8.4620   -0.0410 C   0  0  0  0  0  0  0  0  0  0  0  0
   -2.3530    9.0120   -0.1040 H   0  0  0  0  0  0  0  0  0  0  0  0
   -1.4280    7.8770    0.8870 H   0  0  0  0  0  0  0  0  0  0  0  0
    2.1530    9.4590    0.5320 C   0  0  0  0  0  0  0  0  0  0  0  0
    3.4430    8.7480    0.6880 C   0  0  0  0  0  0  0  0  0  0  0  0
    3.5310    7.6000    1.4820 C   0  0  0  0  0  0  0  0  0  0  0  0
    2.6600    7.1910    1.9850 H   0  0  0  0  0  0  0  0  0  0  0  0
    4.7690    6.9860    1.6420 C   0  0  0  0  0  0  0  0  0  0  0  0
    5.9060    7.5120    1.0360 C   0  0  0  0  0  0  0  0  0  0  0  0
    5.8240    8.6660    0.2620 C   0  0  0  0  0  0  0  0  0  0  0  0
    6.7200    9.0740   -0.1950 H   0  0  0  0  0  0  0  0  0  0  0  0
    4.5880    9.2930    0.0930 C   0  0  0  0  0  0  0  0  0  0  0  0
    4.5200   10.2060   -0.4970 H   0  0  0  0  0  0  0  0  0  0  0  0
   -4.3390    8.1000   -1.3890 O   0  0  0  0  0  0  0  0  0  0  0  0
   -2.3410    6.0280   -2.6300 O   0  0  0  0  0  0  0  0  0  0  0  0
    2.1160   10.6300    0.8990 O   0  0  0  0  0  0  0  0  0  0  0  0
    4.8600    5.8830    2.3970 F   0  0  0  0  0  0  0  0  0  0  0  0
    7.0930    6.9130    1.2020 F   0  0  0  0  0  0  0  0  0  0  0  0
  1  2  1  0  0  0  0
  1  3  1  0  0  0  0
  1  9  2  0  0  0  0
  3  4  1  0  0  0  0
  3  5  2  0  0  0  0
  5  6  1  0  0  0  0
  5  7  1  0  0  0  0
  7  8  2  0  0  0  0
  7 11  1  0  0  0  0
  8  9  1  0  0  0  0
  8 15  1  0  0  0  0
  9 10  1  0  0  0  0
 11 12  1  0  0  0  0
 11 13  1  0  0  0  0
 13 14  1  0  0  0  0
 13 15  2  0  0  0  0
 15 16  1  0  0  0  0
 16 17  1  0  0  0  0
 16 42  2  0  0  0  0
 17 18  1  0  0  0  0
 17 43  2  0  0  0  0
 18 19  1  0  0  0  0
 18 29  1  0  0  0  0
 19 20  1  0  0  0  0
 19 21  1  0  0  0  0
 19 22  1  0  0  0  0
 22 23  1  0  0  0  0
 22 24  1  0  0  0  0
 22 25  1  0  0  0  0
 25 26  1  0  0  0  0
 25 32  1  0  0  0  0
 26 27  1  0  0  0  0
 26 28  1  0  0  0  0
 26 29  1  0  0  0  0
 29 30  1  0  0  0  0
 29 31  1  0  0  0  0
 32 33  1  0  0  0  0
 32 44  2  0  0  0  0
 33 34  1  0  0  0  0
 33 40  2  0  0  0  0
 34 35  1  0  0  0  0
 34 36  2  0  0  0  0
 36 37  1  0  0  0  0
 36 45  1  0  0  0  0
 37 38  2  0  0  0  0
 37 46  1  0  0  0  0
 38 39  1  0  0  0  0
 38 40  1  0  0  0  0
 40 41  1  0  0  0  0
M  END
>  <Activity>
5.0809

>  <AM1_dipole>
3.04689

>  <AM1_E>
-126205

>  <AM1_Eele>
-884440

>  <AM1_HF>
-84.495

>  <AM1_HOMO>
-8.90631

>  <AM1_IP>
8.90631

>  <AM1_LUMO>
-0.71724

>  <diameter>
16

>  <petitjean>
0.5

>  <petitjeanSC>
1

>  <radius>
8

>  <VDistEq>
3.74402

>  <VDistMa>
9.38876

>  <weinerPath>
2487

>  <weinerPol>
49

>  <BCUT_PEOE_0>
-2.71175

>  <BCUT_PEOE_1>
-0.639791

>  <BCUT_PEOE_2>
0.655369

>  <BCUT_PEOE_3>
2.65045

>  <BCUT_SLOGP_0>
-2.86003

>  <BCUT_SLOGP_1>
-0.513825

>  <BCUT_SLOGP_2>
0.760245

>  <BCUT_SLOGP_3>
2.50308

>  <BCUT_SMR_0>
-2.43203

>  <BCUT_SMR_1>
-0.433376

>  <BCUT_SMR_2>
0.826244

>  <BCUT_SMR_3>
2.92023

>  <GCUT_PEOE_0>
-0.860602

>  <GCUT_PEOE_1>
-0.456995

>  <GCUT_PEOE_2>
0.069057

>  <GCUT_PEOE_3>
2.65252

>  <GCUT_SLOGP_0>
-0.976485

>  <GCUT_SLOGP_1>
-0.335835

>  <GCUT_SLOGP_2>
0.19753

>  <GCUT_SLOGP_3>
2.62895

>  <GCUT_SMR_0>
-0.508918

>  <GCUT_SMR_1>
-0.215862

>  <GCUT_SMR_2>
0.193277

>  <GCUT_SMR_3>
2.92005

>  <a_aro>
15

>  <a_count>
46

>  <a_IC>
80.8485

>  <a_ICM>
1.75758

>  <a_nH>
17

>  <b_1rotN>
5

>  <b_1rotR>
0.15625

>  <b_ar>
16

>  <b_count>
49

>  <b_double>
3

>  <b_rotN>
5

>  <b_rotR>
0.15625

>  <b_single>
30

>  <b_triple>
0

>  <chi0v>
15.3223

>  <chi0v_C>
11.9472

>  <chi1v>
9.0952

>  <chi1v_C>
5.85406

>  <chiral>
0

>  <chiral_u>
0

>  <nmol>
1

>  <reactive>
0

>  <rings>
4

>  <Weight>
397.381

>  <a_heavy>
29

>  <a_nB>
0

>  <a_nBr>
0

>  <a_nC>
21

>  <a_nCl>
0

>  <a_nF>
2

>  <a_nI>
0

>  <a_nN>
3

>  <a_nO>
3

>  <a_nP>
0

>  <a_nS>
0

>  <b_heavy>
32

>  <chi0>
20.5432

>  <chi0_C>
13.6814

>  <chi1>
13.9524

>  <chi1_C>
7.85774

>  <FCharge>
0

>  <VAdjEq>
0.388286

>  <VAdjMa>
6

>  <zagreb>
156

>  <balabanJ>
1.2669

>  <PEOE_PC+>
2.53594

>  <PEOE_PC->
-2.53594

>  <PEOE_RPC+>
0.116367

>  <PEOE_RPC->
0.141938

>  <PEOE_VSA+0>
80.6318

>  <PEOE_VSA+1>
70.4547

>  <PEOE_VSA+2>
0

>  <PEOE_VSA+3>
26.6607

>  <PEOE_VSA+4>
0

>  <PEOE_VSA+5>
34.3576

>  <PEOE_VSA+6>
0

>  <PEOE_VSA-0>
49.0196

>  <PEOE_VSA-1>
36.7647

>  <PEOE_VSA-2>
0

>  <PEOE_VSA-3>
0

>  <PEOE_VSA-4>
23.8173

>  <PEOE_VSA-5>
40.7008

>  <PEOE_VSA-6>
0.136891

>  <PEOE_VSA_FHYD>
0.726895

>  <PEOE_VSA_FNEG>
0.414954

>  <PEOE_VSA_FPNEG>
0.178337

>  <PEOE_VSA_FPOL>
0.273105

>  <PEOE_VSA_FPOS>
0.585046

>  <PEOE_VSA_FPPOS>
0.094768

>  <PEOE_VSA_HYD>
263.532

>  <PEOE_VSA_NEG>
150.439

>  <PEOE_VSA_PNEG>
64.6549

>  <PEOE_VSA_POL>
99.0125

>  <PEOE_VSA_POS>
212.105

>  <PEOE_VSA_PPOS>
34.3576

>  <PC+>
4.999

>  <PC->
-5

>  <Q_PC+>
4.999

>  <Q_PC->
-5

>  <Q_RPC+>
0.131226

>  <Q_RPC->
0.132

>  <Q_VSA_FHYD>
0.577451

>  <Q_VSA_FNEG>
0.485338

>  <Q_VSA_FPNEG>
0.158454

>  <Q_VSA_FPOL>
0.422549

>  <Q_VSA_FPOS>
0.514662

>  <Q_VSA_FPPOS>
0.264094

>  <Q_VSA_HYD>
209.352

>  <Q_VSA_NEG>
175.956

>  <Q_VSA_PNEG>
57.4467

>  <Q_VSA_POL>
153.193

>  <Q_VSA_POS>
186.588

>  <Q_VSA_PPOS>
95.7459

>  <RPC+>
0.131226

>  <RPC->
0.132

>  <lip_acc>
6

>  <lip_don>
1

>  <lip_druglike>
1

>  <lip_violation>
0

>  <opr_brigid>
22

>  <opr_leadlike>
1

>  <opr_nring>
4

>  <opr_nrot>
5

>  <opr_violation>
0

>  <E>
92.8547

>  <E_ang>
7.44151

>  <E_ele>
30.564

>  <E_nb>
75.4479

>  <E_oop>
0.0547132

>  <E_sol>
-21.9576

>  <E_stb>
0.414431

>  <E_str>
5.72696

>  <E_strain>
0.0070028

>  <E_tor>
3.76924

>  <E_vdw>
44.8838

>  <E_rele>
0

>  <E_rnb>
-4.26326e-014

>  <E_rsol>
-4.26326e-014

>  <E_rvdw>
0

>  <Kier1>
22.2031

>  <Kier2>
9.6465

>  <Kier3>
4.76896

>  <KierA1>
15.2245

>  <KierA2>
6.51766

>  <KierA3>
3.18716

>  <KierFlex>
3.42166

>  <logS>
-4.61955

>  <MNDO_dipole>
3.71772

>  <MNDO_E>
-126148

>  <MNDO_Eele>
-876719

>  <MNDO_HF>
-105.864

>  <MNDO_HOMO>
-8.90177

>  <MNDO_IP>
8.90177

>  <MNDO_LUMO>
-1.04444

>  <apol>
55.1155

>  <bpol>
28.4845

>  <mr>
10.3924

>  <dipole>
0.890007

>  <dipoleX>
0.206333

>  <dipoleY>
-0.747041

>  <dipoleZ>
0.437571

>  <pmi>
9698.3

>  <pmiX>
8047.43

>  <pmiY>
983.764

>  <pmiZ>
667.1

>  <rgyr>
4.9402

>  <a_acc>
3

>  <a_acid>
0

>  <a_base>
0

>  <a_don>
1

>  <a_hyd>
20

>  <vsa_acc>
40.7008

>  <vsa_acid>
0

>  <vsa_base>
0

>  <vsa_don>
5.68258

>  <vsa_hyd>
267.341

>  <vsa_other>
34.3576

>  <vsa_pol>
46.3833

>  <PM3_dipole>
3.52922

>  <PM3_E>
-115237

>  <PM3_Eele>
-861923

>  <PM3_HF>
-116.746

>  <PM3_HOMO>
-8.86728

>  <PM3_IP>
8.86728

>  <PM3_LUMO>
-0.83086

>  <SlogP>
2.6134

>  <SlogP_VSA0>
0

>  <SlogP_VSA1>
22.4538

>  <SlogP_VSA2>
58.8898

>  <SlogP_VSA3>
73.7583

>  <SlogP_VSA4>
54.0956

>  <SlogP_VSA5>
0

>  <SlogP_VSA6>
0

>  <SlogP_VSA7>
145.434

>  <SlogP_VSA8>
0

>  <SlogP_VSA9>
29.9202

>  <SMR>
10.1471

>  <SMR_VSA0>
71.5866

>  <SMR_VSA1>
36.1689

>  <SMR_VSA2>
35.0276

>  <SMR_VSA3>
6.37115

>  <SMR_VSA4>
4.7171

>  <SMR_VSA5>
140.717

>  <SMR_VSA6>
89.9635

>  <SMR_VSA7>
0

>  <ASA>
633.146

>  <ASA+>
237.167

>  <ASA->
287.64

>  <ASA_H>
476.78

>  <ASA_P>
156.366

>  <CASA+>
1185.6

>  <CASA->
1438.2

>  <DASA>
50.473

>  <DCASA>
252.602

>  <FASA+>
0.374585

>  <FASA->
0.454303

>  <FASA_H>
0.753033

>  <FASA_P>
0.246967

>  <FCASA+>
1.87255

>  <FCASA->
2.27151

>  <VSA>
386.587

>  <TPSA>
73.48

>  <density>
0.807806

>  <vdw_area>
362.544

>  <vdw_vol>
491.926

>  <vsurf_A>
2.79969

>  <vsurf_CP>
0.134114

>  <vsurf_CW1>
2.70532

>  <vsurf_CW2>
2.33169

>  <vsurf_CW3>
1.68912

>  <vsurf_CW4>
0.596358

>  <vsurf_CW5>
0.203652

>  <vsurf_CW6>
0.0646372

>  <vsurf_CW7>
0.00552381

>  <vsurf_CW8>
0

>  <vsurf_D1>
815.875

>  <vsurf_D2>
481.625

>  <vsurf_D3>
349.875

>  <vsurf_D4>
283.125

>  <vsurf_D5>
231.875

>  <vsurf_D6>
182.625

>  <vsurf_D7>
113.5

>  <vsurf_D8>
71.375

>  <vsurf_DD12>
3.20156

>  <vsurf_DD13>
4.63681

>  <vsurf_DD23>
1.65831

>  <vsurf_DW12>
0.707107

>  <vsurf_DW13>
0.5

>  <vsurf_DW23>
0.866025

>  <vsurf_EDmin1>
-2.66462

>  <vsurf_EDmin2>
-2.61056

>  <vsurf_EDmin3>
-2.56939

>  <vsurf_EWmin1>
-5.45076

>  <vsurf_EWmin2>
-5.29911

>  <vsurf_EWmin3>
-5.191

>  <vsurf_G>
1.35385

>  <vsurf_HB1>
376

>  <vsurf_HB2>
480.875

>  <vsurf_HB3>
387.5

>  <vsurf_HB4>
109.75

>  <vsurf_HB5>
29.875

>  <vsurf_HB6>
8.25

>  <vsurf_HB7>
1.25

>  <vsurf_HB8>
0

>  <vsurf_HL1>
0.103608

>  <vsurf_HL2>
0.0348786

>  <vsurf_ID1>
1.11162

>  <vsurf_ID2>
1.04746

>  <vsurf_ID3>
1.28087

>  <vsurf_ID4>
1.58827

>  <vsurf_ID5>
1.89658

>  <vsurf_ID6>
1.98212

>  <vsurf_ID7>
1.09779

>  <vsurf_ID8>
0.83882

>  <vsurf_IW1>
0.241664

>  <vsurf_IW2>
0.485581

>  <vsurf_IW3>
0.752389

>  <vsurf_IW4>
1.48582

>  <vsurf_IW5>
2.37815

>  <vsurf_IW6>
2.84097

>  <vsurf_IW7>
3.84787

>  <vsurf_IW8>
0

>  <vsurf_R>
1.43214

>  <vsurf_S>
575.623

>  <vsurf_V>
824.375

>  <vsurf_W1>
1424.5

>  <vsurf_W2>
920.125

>  <vsurf_W3>
471.5

>  <vsurf_W4>
126.875

>  <vsurf_W5>
36.25

>  <vsurf_W6>
9.875

>  <vsurf_W7>
1.25

>  <vsurf_W8>
0

>  <vsurf_Wp1>
1048.5

>  <vsurf_Wp2>
439.25

>  <vsurf_Wp3>
84

>  <vsurf_Wp4>
17.125

>  <vsurf_Wp5>
6.375

>  <vsurf_Wp6>
1.625

>  <vsurf_Wp7>
0

>  <vsurf_Wp8>
0

>  <dens>
1.13133

>  <glob>
0.0698462

>  <std_dim1>
4.52127

>  <std_dim2>
1.57351

>  <std_dim3>
1.1949

>  <vol>
351.25

>  <logP(o/w)>
2.424

$$$$
D7.cdx
  MOE2008           3D

 46 49  0  0  0  0  0  0  0  0999 V2000
   -7.1370    3.9140   -0.8250 C   0  0  0  0  0  0  0  0  0  0  0  0
   -7.7130    4.7250   -1.2630 H   0  0  0  0  0  0  0  0  0  0  0  0
   -7.7660    2.9830   -0.0030 C   0  0  0  0  0  0  0  0  0  0  0  0
   -8.8310    3.0760    0.1950 H   0  0  0  0  0  0  0  0  0  0  0  0
   -7.0520    1.9280    0.5720 C   0  0  0  0  0  0  0  0  0  0  0  0
   -7.5490    1.2040    1.2100 H   0  0  0  0  0  0  0  0  0  0  0  0
   -5.6820    1.8430    0.2920 C   0  0  0  0  0  0  0  0  0  0  0  0
   -5.0190    2.7580   -0.5280 C   0  0  0  0  0  0  0  0  0  0  0  0
   -5.7670    3.8140   -1.0940 C   0  0  0  0  0  0  0  0  0  0  0  0
   -5.2860    4.5460   -1.7380 H   0  0  0  0  0  0  0  0  0  0  0  0
   -4.7500    0.9250    0.7120 N   0  0  0  0  0  0  0  0  0  0  0  0
   -4.9490    0.1400    1.3170 H   0  0  0  0  0  0  0  0  0  0  0  0
   -3.5200    1.2270    0.1910 C   0  0  0  0  0  0  0  0  0  0  0  0
   -2.6670    0.6000    0.4180 H   0  0  0  0  0  0  0  0  0  0  0  0
   -3.6420    2.3610   -0.5920 C   0  0  0  0  0  0  0  0  0  0  0  0
   -2.5630    3.0090   -1.3280 C   0  0  0  0  0  0  0  0  0  0  0  0
   -1.1510    2.4480   -1.2610 C   0  0  0  0  0  0  0  0  0  0  0  0
   -0.2050    3.2060   -0.5740 N   0  0  0  0  0  0  0  0  0  0  0  0
    1.1800    2.7390   -0.5160 C   0  0  0  0  0  0  0  0  0  0  0  0
    1.2790    2.1600    0.4100 H   0  0  0  0  0  0  0  0  0  0  0  0
    1.3880    2.0620   -1.3510 H   0  0  0  0  0  0  0  0  0  0  0  0
    2.1780    3.9020   -0.5180 C   0  0  0  0  0  0  0  0  0  0  0  0
    2.1130    4.4400   -1.4710 H   0  0  0  0  0  0  0  0  0  0  0  0
    3.1980    3.5200   -0.4140 H   0  0  0  0  0  0  0  0  0  0  0  0
    1.9070    4.8840    0.5430 N   0  0  0  0  0  0  0  0  0  0  0  0
    0.5610    4.8780    1.1200 C   0  0  0  0  0  0  0  0  0  0  0  0
    0.5800    4.1590    1.9480 H   0  0  0  0  0  0  0  0  0  0  0  0
    0.3240    5.8590    1.5440 H   0  0  0  0  0  0  0  0  0  0  0  0
   -0.5090    4.4750    0.1000 C   0  0  0  0  0  0  0  0  0  0  0  0
   -0.5800    5.2380   -0.6850 H   0  0  0  0  0  0  0  0  0  0  0  0
   -1.4860    4.4050    0.5900 H   0  0  0  0  0  0  0  0  0  0  0  0
    2.8370    5.8000    1.0320 C   0  0  0  0  0  0  0  0  0  0  0  0
    4.1540    5.8710    0.3850 C   0  0  0  0  0  0  0  0  0  0  0  0
    5.2820    5.4250    1.0650 C   0  0  0  0  0  0  0  0  0  0  0  0
    6.5420    5.5220    0.4780 C   0  0  0  0  0  0  0  0  0  0  0  0
    7.4160    5.1650    1.0170 H   0  0  0  0  0  0  0  0  0  0  0  0
    6.6730    6.0760   -0.7970 C   0  0  0  0  0  0  0  0  0  0  0  0
    7.6550    6.1540   -1.2580 H   0  0  0  0  0  0  0  0  0  0  0  0
    5.5430    6.5340   -1.4770 C   0  0  0  0  0  0  0  0  0  0  0  0
    5.6340    6.9720   -2.4670 H   0  0  0  0  0  0  0  0  0  0  0  0
    4.2890    6.4350   -0.8790 C   0  0  0  0  0  0  0  0  0  0  0  0
   -2.7260    4.0180   -2.0090 O   0  0  0  0  0  0  0  0  0  0  0  0
   -0.9380    1.3720   -1.8100 O   0  0  0  0  0  0  0  0  0  0  0  0
    2.6330    6.5640    1.9700 O   0  0  0  0  0  0  0  0  0  0  0  0
    5.1750    4.8780    2.2840 F   0  0  0  0  0  0  0  0  0  0  0  0
    3.2170    6.8910   -1.5430 F   0  0  0  0  0  0  0  0  0  0  0  0
  1  2  1  0  0  0  0
  1  3  1  0  0  0  0
  1  9  2  0  0  0  0
  3  4  1  0  0  0  0
  3  5  2  0  0  0  0
  5  6  1  0  0  0  0
  5  7  1  0  0  0  0
  7  8  2  0  0  0  0
  7 11  1  0  0  0  0
  8  9  1  0  0  0  0
  8 15  1  0  0  0  0
  9 10  1  0  0  0  0
 11 12  1  0  0  0  0
 11 13  1  0  0  0  0
 13 14  1  0  0  0  0
 13 15  2  0  0  0  0
 15 16  1  0  0  0  0
 16 17  1  0  0  0  0
 16 42  2  0  0  0  0
 17 18  1  0  0  0  0
 17 43  2  0  0  0  0
 18 19  1  0  0  0  0
 18 29  1  0  0  0  0
 19 20  1  0  0  0  0
 19 21  1  0  0  0  0
 19 22  1  0  0  0  0
 22 23  1  0  0  0  0
 22 24  1  0  0  0  0
 22 25  1  0  0  0  0
 25 26  1  0  0  0  0
 25 32  1  0  0  0  0
 26 27  1  0  0  0  0
 26 28  1  0  0  0  0
 26 29  1  0  0  0  0
 29 30  1  0  0  0  0
 29 31  1  0  0  0  0
 32 33  1  0  0  0  0
 32 44  2  0  0  0  0
 33 34  1  0  0  0  0
 33 41  2  0  0  0  0
 34 35  2  0  0  0  0
 34 45  1  0  0  0  0
 35 36  1  0  0  0  0
 35 37  1  0  0  0  0
 37 38  1  0  0  0  0
 37 39  2  0  0  0  0
 39 40  1  0  0  0  0
 39 41  1  0  0  0  0
 41 46  1  0  0  0  0
M  END
>  <Activity>
5.1739

>  <AM1_dipole>
3.98554

>  <AM1_E>
-126203

>  <AM1_Eele>
-897809

>  <AM1_HF>
-82.5111

>  <AM1_HOMO>
-8.87236

>  <AM1_IP>
8.87236

>  <AM1_LUMO>
-0.57871

>  <diameter>
15

>  <petitjean>
0.466667

>  <petitjeanSC>
0.875

>  <radius>
8

>  <VDistEq>
3.68067

>  <VDistMa>
9.39653

>  <weinerPath>
2425

>  <weinerPol>
50

>  <BCUT_PEOE_0>
-2.71099

>  <BCUT_PEOE_1>
-0.639502

>  <BCUT_PEOE_2>
0.652719

>  <BCUT_PEOE_3>
2.65169

>  <BCUT_SLOGP_0>
-2.86018

>  <BCUT_SLOGP_1>
-0.475112

>  <BCUT_SLOGP_2>
0.719961

>  <BCUT_SLOGP_3>
2.50253

>  <BCUT_SMR_0>
-2.43204

>  <BCUT_SMR_1>
-0.43338

>  <BCUT_SMR_2>
0.826244

>  <BCUT_SMR_3>
2.9202

>  <GCUT_PEOE_0>
-0.860602

>  <GCUT_PEOE_1>
-0.455319

>  <GCUT_PEOE_2>
0.0615559

>  <GCUT_PEOE_3>
2.65523

>  <GCUT_SLOGP_0>
-0.976488

>  <GCUT_SLOGP_1>
-0.335836

>  <GCUT_SLOGP_2>
0.158423

>  <GCUT_SLOGP_3>
2.62854

>  <GCUT_SMR_0>
-0.508923

>  <GCUT_SMR_1>
-0.215664

>  <GCUT_SMR_2>
0.193495

>  <GCUT_SMR_3>
2.91994

>  <a_aro>
15

>  <a_count>
46

>  <a_IC>
80.8485

>  <a_ICM>
1.75758

>  <a_nH>
17

>  <b_1rotN>
5

>  <b_1rotR>
0.15625

>  <b_ar>
16

>  <b_count>
49

>  <b_double>
3

>  <b_rotN>
5

>  <b_rotR>
0.15625

>  <b_single>
30

>  <b_triple>
0

>  <chi0v>
15.3223

>  <chi0v_C>
11.9472

>  <chi1v>
9.10118

>  <chi1v_C>
5.86004

>  <chiral>
0

>  <chiral_u>
0

>  <nmol>
1

>  <reactive>
0

>  <rings>
4

>  <Weight>
397.381

>  <a_heavy>
29

>  <a_nB>
0

>  <a_nBr>
0

>  <a_nC>
21

>  <a_nCl>
0

>  <a_nF>
2

>  <a_nI>
0

>  <a_nN>
3

>  <a_nO>
3

>  <a_nP>
0

>  <a_nS>
0

>  <b_heavy>
32

>  <chi0>
20.5432

>  <chi0_C>
13.6814

>  <chi1>
13.9692

>  <chi1_C>
7.87457

>  <FCharge>
0

>  <VAdjEq>
0.388286

>  <VAdjMa>
6

>  <zagreb>
156

>  <balabanJ>
1.29722

>  <PEOE_PC+>
2.56647

>  <PEOE_PC->
-2.56647

>  <PEOE_RPC+>
0.114982

>  <PEOE_RPC->
0.140249

>  <PEOE_VSA+0>
78.4233

>  <PEOE_VSA+1>
70.4547

>  <PEOE_VSA+2>
20.2502

>  <PEOE_VSA+3>
8.61901

>  <PEOE_VSA+4>
0

>  <PEOE_VSA+5>
34.3576

>  <PEOE_VSA+6>
0

>  <PEOE_VSA-0>
36.7647

>  <PEOE_VSA-1>
49.0196

>  <PEOE_VSA-2>
0

>  <PEOE_VSA-3>
0

>  <PEOE_VSA-4>
23.8173

>  <PEOE_VSA-5>
40.7008

>  <PEOE_VSA-6>
0.136891

>  <PEOE_VSA_FHYD>
0.726895

>  <PEOE_VSA_FNEG>
0.414954

>  <PEOE_VSA_FPNEG>
0.178337

>  <PEOE_VSA_FPOL>
0.273105

>  <PEOE_VSA_FPOS>
0.585046

>  <PEOE_VSA_FPPOS>
0.094768

>  <PEOE_VSA_HYD>
263.532

>  <PEOE_VSA_NEG>
150.439

>  <PEOE_VSA_PNEG>
64.6549

>  <PEOE_VSA_POL>
99.0125

>  <PEOE_VSA_POS>
212.105

>  <PEOE_VSA_PPOS>
34.3576

>  <PC+>
4.999

>  <PC->
-5

>  <Q_PC+>
4.999

>  <Q_PC->
-5

>  <Q_RPC+>
0.131226

>  <Q_RPC->
0.132

>  <Q_VSA_FHYD>
0.577451

>  <Q_VSA_FNEG>
0.485338

>  <Q_VSA_FPNEG>
0.158454

>  <Q_VSA_FPOL>
0.422549

>  <Q_VSA_FPOS>
0.514662

>  <Q_VSA_FPPOS>
0.264094

>  <Q_VSA_HYD>
209.352

>  <Q_VSA_NEG>
175.956

>  <Q_VSA_PNEG>
57.4467

>  <Q_VSA_POL>
153.193

>  <Q_VSA_POS>
186.588

>  <Q_VSA_PPOS>
95.7459

>  <RPC+>
0.131226

>  <RPC->
0.132

>  <lip_acc>
6

>  <lip_don>
1

>  <lip_druglike>
1

>  <lip_violation>
0

>  <opr_brigid>
22

>  <opr_leadlike>
1

>  <opr_nring>
4

>  <opr_nrot>
5

>  <opr_violation>
0

>  <E>
85.1018

>  <E_ang>
7.00933

>  <E_ele>
22.7824

>  <E_nb>
67.5009

>  <E_oop>
0.0218323

>  <E_sol>
-18.0813

>  <E_stb>
0.287642

>  <E_str>
5.3933

>  <E_strain>
0.00402415

>  <E_tor>
4.88878

>  <E_vdw>
44.7185

>  <E_rele>
0

>  <E_rnb>
0

>  <E_rsol>
0

>  <E_rvdw>
0

>  <Kier1>
22.2031

>  <Kier2>
9.6465

>  <Kier3>
4.62109

>  <KierA1>
15.2245

>  <KierA2>
6.51766

>  <KierA3>
3.08834

>  <KierFlex>
3.42166

>  <logS>
-4.61955

>  <MNDO_dipole>
2.52425

>  <MNDO_E>
-126147

>  <MNDO_Eele>
-889619

>  <MNDO_HF>
-104.416

>  <MNDO_HOMO>
-8.80329

>  <MNDO_IP>
8.80329

>  <MNDO_LUMO>
-0.93196

>  <apol>
55.1155

>  <bpol>
28.4845

>  <mr>
10.3961

>  <dipole>
0.929002

>  <dipoleX>
0.595769

>  <dipoleY>
-0.692139

>  <dipoleZ>
0.170433

>  <pmi>
9323.76

>  <pmiX>
7522.23

>  <pmiY>
1272.54

>  <pmiZ>
528.985

>  <rgyr>
4.84386

>  <a_acc>
3

>  <a_acid>
0

>  <a_base>
0

>  <a_don>
1

>  <a_hyd>
20

>  <vsa_acc>
40.7008

>  <vsa_acid>
0

>  <vsa_base>
0

>  <vsa_don>
5.68258

>  <vsa_hyd>
267.341

>  <vsa_other>
34.3576

>  <vsa_pol>
46.3833

>  <PM3_dipole>
3.51493

>  <PM3_E>
-115235

>  <PM3_Eele>
-878746

>  <PM3_HF>
-114.748

>  <PM3_HOMO>
-8.81228

>  <PM3_IP>
8.81228

>  <PM3_LUMO>
-0.71454

>  <SlogP>
2.6134

>  <SlogP_VSA0>
0

>  <SlogP_VSA1>
22.4538

>  <SlogP_VSA2>
58.8898

>  <SlogP_VSA3>
73.7583

>  <SlogP_VSA4>
54.0956

>  <SlogP_VSA5>
0

>  <SlogP_VSA6>
0

>  <SlogP_VSA7>
145.434

>  <SlogP_VSA8>
0

>  <SlogP_VSA9>
29.9202

>  <SMR>
10.1471

>  <SMR_VSA0>
71.5866

>  <SMR_VSA1>
36.1689

>  <SMR_VSA2>
35.0276

>  <SMR_VSA3>
6.37115

>  <SMR_VSA4>
4.7171

>  <SMR_VSA5>
140.717

>  <SMR_VSA6>
89.9635

>  <SMR_VSA7>
0

>  <ASA>
630.764

>  <ASA+>
236.688

>  <ASA->
286.149

>  <ASA_H>
480.15

>  <ASA_P>
150.614

>  <CASA+>
1183.2

>  <CASA->
1430.74

>  <DASA>
49.4612

>  <DCASA>
247.543

>  <FASA+>
0.37524

>  <FASA->
0.453654

>  <FASA_H>
0.76122

>  <FASA_P>
0.23878

>  <FCASA+>
1.87582

>  <FCASA->
2.26827

>  <VSA>
384.754

>  <TPSA>
73.48

>  <density>
0.807806

>  <vdw_area>
362.544

>  <vdw_vol>
491.926

>  <vsurf_A>
1.66687

>  <vsurf_CP>
0.109106

>  <vsurf_CW1>
2.6771

>  <vsurf_CW2>
2.18721

>  <vsurf_CW3>
1.54418

>  <vsurf_CW4>
0.745402

>  <vsurf_CW5>
0.233718

>  <vsurf_CW6>
0.073865

>  <vsurf_CW7>
0.010292

>  <vsurf_CW8>
0

>  <vsurf_D1>
793.875

>  <vsurf_D2>
449.5

>  <vsurf_D3>
334.5

>  <vsurf_D4>
278.375

>  <vsurf_D5>
235.75

>  <vsurf_D6>
187.125

>  <vsurf_D7>
96.5

>  <vsurf_D8>
50.625

>  <vsurf_DD12>
1.22474

>  <vsurf_DD13>
0.5

>  <vsurf_DD23>
0.866025

>  <vsurf_DW12>
8.544

>  <vsurf_DW13>
0.707107

>  <vsurf_DW23>
8.86002

>  <vsurf_EDmin1>
-2.64931

>  <vsurf_EDmin2>
-2.58935

>  <vsurf_EDmin3>
-2.58563

>  <vsurf_EWmin1>
-5.65308

>  <vsurf_EWmin2>
-5.64518

>  <vsurf_EWmin3>
-5.53394

>  <vsurf_G>
1.35706

>  <vsurf_HB1>
333.625

>  <vsurf_HB2>
438.875

>  <vsurf_HB3>
395.375

>  <vsurf_HB4>
141.75

>  <vsurf_HB5>
37.375

>  <vsurf_HB6>
10.125

>  <vsurf_HB7>
1.75

>  <vsurf_HB8>
0

>  <vsurf_HL1>
0.130419

>  <vsurf_HL2>
0.0426583

>  <vsurf_ID1>
0.985166

>  <vsurf_ID2>
1.12412

>  <vsurf_ID3>
1.17477

>  <vsurf_ID4>
1.20762

>  <vsurf_ID5>
1.34428

>  <vsurf_ID6>
1.40979

>  <vsurf_ID7>
2.38282

>  <vsurf_ID8>
2.93506

>  <vsurf_IW1>
0.335849

>  <vsurf_IW2>
0.213178

>  <vsurf_IW3>
0.456422

>  <vsurf_IW4>
0.676179

>  <vsurf_IW5>
0.530002

>  <vsurf_IW6>
1.20504

>  <vsurf_IW7>
1.92089

>  <vsurf_IW8>
0

>  <vsurf_R>
1.42608

>  <vsurf_S>
574.829

>  <vsurf_V>
819.75

>  <vsurf_W1>
1398.88

>  <vsurf_W2>
880.375

>  <vsurf_W3>
472

>  <vsurf_W4>
158.375

>  <vsurf_W5>
43.625

>  <vsurf_W6>
11.875

>  <vsurf_W7>
1.75

>  <vsurf_W8>
0

>  <vsurf_Wp1>
1065.25

>  <vsurf_Wp2>
441.5

>  <vsurf_Wp3>
76.625

>  <vsurf_Wp4>
16.625

>  <vsurf_Wp5>
6.25

>  <vsurf_Wp6>
1.75

>  <vsurf_Wp7>
0

>  <vsurf_Wp8>
0

>  <dens>
1.13093

>  <glob>
0.0542476

>  <std_dim1>
4.77089

>  <std_dim2>
1.36177

>  <std_dim3>
1.11119

>  <vol>
351.375

>  <logP(o/w)>
2.385

$$$$
D7.cdx
  MOE2008           3D

 46 49  0  0  0  0  0  0  0  0999 V2000
   -6.6940   -0.1160   -1.9680 C   0  0  0  0  0  0  0  0  0  0  0  0
   -7.4720    0.6070   -2.2040 H   0  0  0  0  0  0  0  0  0  0  0  0
   -6.7560   -1.3990   -2.5040 C   0  0  0  0  0  0  0  0  0  0  0  0
   -7.5820   -1.6680   -3.1570 H   0  0  0  0  0  0  0  0  0  0  0  0
   -5.7720   -2.3490   -2.2150 C   0  0  0  0  0  0  0  0  0  0  0  0
   -5.8280   -3.3490   -2.6340 H   0  0  0  0  0  0  0  0  0  0  0  0
   -4.7250   -1.9630   -1.3700 C   0  0  0  0  0  0  0  0  0  0  0  0
   -4.6310   -0.6850   -0.8150 C   0  0  0  0  0  0  0  0  0  0  0  0
   -5.6400    0.2540   -1.1240 C   0  0  0  0  0  0  0  0  0  0  0  0
   -5.6040    1.2580   -0.7110 H   0  0  0  0  0  0  0  0  0  0  0  0
   -3.6420   -2.6810   -0.9200 N   0  0  0  0  0  0  0  0  0  0  0  0
   -3.4570   -3.6460   -1.1580 H   0  0  0  0  0  0  0  0  0  0  0  0
   -2.8620   -1.9010   -0.1090 C   0  0  0  0  0  0  0  0  0  0  0  0
   -1.9650   -2.3120    0.3380 H   0  0  0  0  0  0  0  0  0  0  0  0
   -3.4450   -0.6500   -0.0090 C   0  0  0  0  0  0  0  0  0  0  0  0
   -2.9360    0.4690    0.7740 C   0  0  0  0  0  0  0  0  0  0  0  0
   -1.6290    0.3340    1.5340 C   0  0  0  0  0  0  0  0  0  0  0  0
   -0.5030    0.9430    0.9830 N   0  0  0  0  0  0  0  0  0  0  0  0
    0.7770    0.8060    1.6810 C   0  0  0  0  0  0  0  0  0  0  0  0
    0.7970    1.5870    2.4510 H   0  0  0  0  0  0  0  0  0  0  0  0
    0.8190   -0.1620    2.1930 H   0  0  0  0  0  0  0  0  0  0  0  0
    1.9800    0.9610    0.7470 C   0  0  0  0  0  0  0  0  0  0  0  0
    1.9840    0.1480    0.0120 H   0  0  0  0  0  0  0  0  0  0  0  0
    2.9070    0.9020    1.3250 H   0  0  0  0  0  0  0  0  0  0  0  0
    1.9390    2.2200   -0.0130 N   0  0  0  0  0  0  0  0  0  0  0  0
    0.6120    2.7830   -0.2780 C   0  0  0  0  0  0  0  0  0  0  0  0
    0.4300    3.5330    0.5020 H   0  0  0  0  0  0  0  0  0  0  0  0
    0.6180    3.3060   -1.2400 H   0  0  0  0  0  0  0  0  0  0  0  0
   -0.5000    1.7290   -0.2580 C   0  0  0  0  0  0  0  0  0  0  0  0
   -0.3560    1.0140   -1.0770 H   0  0  0  0  0  0  0  0  0  0  0  0
   -1.4680    2.2130   -0.4100 H   0  0  0  0  0  0  0  0  0  0  0  0
    3.0520    2.9190   -0.4750 C   0  0  0  0  0  0  0  0  0  0  0  0
    4.3920    2.3190   -0.3240 C   0  0  0  0  0  0  0  0  0  0  0  0
    4.7210    1.1250   -0.9720 C   0  0  0  0  0  0  0  0  0  0  0  0
    6.0000    0.5880   -0.8600 C   0  0  0  0  0  0  0  0  0  0  0  0
    6.2540   -0.3400   -1.3600 H   0  0  0  0  0  0  0  0  0  0  0  0
    6.9530    1.2660   -0.1060 C   0  0  0  0  0  0  0  0  0  0  0  0
    6.6360    2.4670    0.5240 C   0  0  0  0  0  0  0  0  0  0  0  0
    5.3590    3.0080    0.4160 C   0  0  0  0  0  0  0  0  0  0  0  0
    5.1280    3.9530    0.8990 H   0  0  0  0  0  0  0  0  0  0  0  0
   -3.5180    1.5470    0.8620 O   0  0  0  0  0  0  0  0  0  0  0  0
   -1.6390   -0.3130    2.5760 O   0  0  0  0  0  0  0  0  0  0  0  0
    3.0010    4.0330   -0.9880 O   0  0  0  0  0  0  0  0  0  0  0  0
    3.8140    0.4810   -1.7200 F   0  0  0  0  0  0  0  0  0  0  0  0
    8.1880    0.7580    0.0030 F   0  0  0  0  0  0  0  0  0  0  0  0
    7.5660    3.1150    1.2380 F   0  0  0  0  0  0  0  0  0  0  0  0
  1  2  1  0  0  0  0
  1  3  1  0  0  0  0
  1  9  2  0  0  0  0
  3  4  1  0  0  0  0
  3  5  2  0  0  0  0
  5  6  1  0  0  0  0
  5  7  1  0  0  0  0
  7  8  2  0  0  0  0
  7 11  1  0  0  0  0
  8  9  1  0  0  0  0
  8 15  1  0  0  0  0
  9 10  1  0  0  0  0
 11 12  1  0  0  0  0
 11 13  1  0  0  0  0
 13 14  1  0  0  0  0
 13 15  2  0  0  0  0
 15 16  1  0  0  0  0
 16 17  1  0  0  0  0
 16 41  2  0  0  0  0
 17 18  1  0  0  0  0
 17 42  2  0  0  0  0
 18 19  1  0  0  0  0
 18 29  1  0  0  0  0
 19 20  1  0  0  0  0
 19 21  1  0  0  0  0
 19 22  1  0  0  0  0
 22 23  1  0  0  0  0
 22 24  1  0  0  0  0
 22 25  1  0  0  0  0
 25 26  1  0  0  0  0
 25 32  1  0  0  0  0
 26 27  1  0  0  0  0
 26 28  1  0  0  0  0
 26 29  1  0  0  0  0
 29 30  1  0  0  0  0
 29 31  1  0  0  0  0
 32 33  1  0  0  0  0
 32 43  2  0  0  0  0
 33 34  1  0  0  0  0
 33 39  2  0  0  0  0
 34 35  2  0  0  0  0
 34 44  1  0  0  0  0
 35 36  1  0  0  0  0
 35 37  1  0  0  0  0
 37 38  2  0  0  0  0
 37 45  1  0  0  0  0
 38 39  1  0  0  0  0
 38 46  1  0  0  0  0
 39 40  1  0  0  0  0
M  END
>  <Activity>
4.4377

>  <AM1_dipole>
4.58896

>  <AM1_E>
-137073

>  <AM1_Eele>
-952039

>  <AM1_HF>
-126.676

>  <AM1_HOMO>
-8.88309

>  <AM1_IP>
8.88309

>  <AM1_LUMO>
-0.97597

>  <diameter>
16

>  <petitjean>
0.5

>  <petitjeanSC>
1

>  <radius>
8

>  <VDistEq>
3.75013

>  <VDistMa>
9.49108

>  <weinerPath>
2695

>  <weinerPol>
52

>  <BCUT_PEOE_0>
-2.7113

>  <BCUT_PEOE_1>
-0.639907

>  <BCUT_PEOE_2>
0.655173

>  <BCUT_PEOE_3>
2.65118

>  <BCUT_SLOGP_0>
-2.86011

>  <BCUT_SLOGP_1>
-0.48104

>  <BCUT_SLOGP_2>
0.795863

>  <BCUT_SLOGP_3>
2.50266

>  <BCUT_SMR_0>
-2.43204

>  <BCUT_SMR_1>
-0.433376

>  <BCUT_SMR_2>
0.826244

>  <BCUT_SMR_3>
2.92021

>  <GCUT_PEOE_0>
-0.860602

>  <GCUT_PEOE_1>
-0.464713

>  <GCUT_PEOE_2>
0.0615559

>  <GCUT_PEOE_3>
2.65626

>  <GCUT_SLOGP_0>
-0.976487

>  <GCUT_SLOGP_1>
-0.335836

>  <GCUT_SLOGP_2>
0.253381

>  <GCUT_SLOGP_3>
2.62827

>  <GCUT_SMR_0>
-0.508923

>  <GCUT_SMR_1>
-0.215663

>  <GCUT_SMR_2>
0.193498

>  <GCUT_SMR_3>
2.9199

>  <a_aro>
15

>  <a_count>
46

>  <a_IC>
83.5805

>  <a_ICM>
1.81697

>  <a_nH>
16

>  <b_1rotN>
5

>  <b_1rotR>
0.151515

>  <b_ar>
16

>  <b_count>
49

>  <b_double>
3

>  <b_rotN>
5

>  <b_rotR>
0.151515

>  <b_single>
30

>  <b_triple>
0

>  <chi0v>
15.6229

>  <chi0v_C>
11.8699

>  <chi1v>
9.20084

>  <chi1v_C>
5.77073

>  <chiral>
0

>  <chiral_u>
0

>  <nmol>
1

>  <reactive>
0

>  <rings>
4

>  <Weight>
415.371

>  <a_heavy>
30

>  <a_nB>
0

>  <a_nBr>
0

>  <a_nC>
21

>  <a_nCl>
0

>  <a_nF>
3

>  <a_nI>
0

>  <a_nN>
3

>  <a_nO>
3

>  <a_nP>
0

>  <a_nS>
0

>  <b_heavy>
33

>  <chi0>
21.4135

>  <chi0_C>
13.5517

>  <chi1>
14.3631

>  <chi1_C>
7.69107

>  <FCharge>
0

>  <VAdjEq>
0.378242

>  <VAdjMa>
6.04439

>  <zagreb>
162

>  <balabanJ>
1.28592

>  <PEOE_PC+>
2.66808

>  <PEOE_PC->
-2.66808

>  <PEOE_RPC+>
0.110604

>  <PEOE_RPC->
0.134908

>  <PEOE_VSA+0>
90.6782

>  <PEOE_VSA+1>
68.3979

>  <PEOE_VSA+2>
9.02085

>  <PEOE_VSA+3>
26.6607

>  <PEOE_VSA+4>
0

>  <PEOE_VSA+5>
34.3576

>  <PEOE_VSA+6>
0

>  <PEOE_VSA-0>
24.5098

>  <PEOE_VSA-1>
36.7647

>  <PEOE_VSA-2>
0

>  <PEOE_VSA-3>
0

>  <PEOE_VSA-4>
35.7259

>  <PEOE_VSA-5>
40.7008

>  <PEOE_VSA-6>
0.136891

>  <PEOE_VSA_FHYD>
0.697724

>  <PEOE_VSA_FNEG>
0.375628

>  <PEOE_VSA_FPNEG>
0.208647

>  <PEOE_VSA_FPOL>
0.302276

>  <PEOE_VSA_FPOS>
0.624372

>  <PEOE_VSA_FPPOS>
0.0936293

>  <PEOE_VSA_HYD>
256.032

>  <PEOE_VSA_NEG>
137.838

>  <PEOE_VSA_PNEG>
76.5636

>  <PEOE_VSA_POL>
110.921

>  <PEOE_VSA_POS>
229.115

>  <PEOE_VSA_PPOS>
34.3576

>  <PC+>
5.039

>  <PC->
-5.04

>  <Q_PC+>
5.039

>  <Q_PC->
-5.04

>  <Q_RPC+>
0.130185

>  <Q_RPC->
0.130952

>  <Q_VSA_FHYD>
0.582528

>  <Q_VSA_FNEG>
0.478563

>  <Q_VSA_FPNEG>
0.15655

>  <Q_VSA_FPOL>
0.417472

>  <Q_VSA_FPOS>
0.521437

>  <Q_VSA_FPPOS>
0.260921

>  <Q_VSA_HYD>
213.761

>  <Q_VSA_NEG>
175.61

>  <Q_VSA_PNEG>
57.4467

>  <Q_VSA_POL>
153.193

>  <Q_VSA_POS>
191.343

>  <Q_VSA_PPOS>
95.7459

>  <RPC+>
0.130185

>  <RPC->
0.130952

>  <lip_acc>
6

>  <lip_don>
1

>  <lip_druglike>
1

>  <lip_violation>
0

>  <opr_brigid>
22

>  <opr_leadlike>
1

>  <opr_nring>
4

>  <opr_nrot>
5

>  <opr_violation>
0

>  <E>
87.5219

>  <E_ang>
7.98697

>  <E_ele>
24.8036

>  <E_nb>
69.6073

>  <E_oop>
0.0494501

>  <E_sol>
-19.737

>  <E_stb>
0.471666

>  <E_str>
5.50082

>  <E_strain>
0.00415585

>  <E_tor>
3.90564

>  <E_vdw>
44.8037

>  <E_rele>
0

>  <E_rnb>
0

>  <E_rsol>
0

>  <E_rvdw>
0

>  <Kier1>
23.168

>  <Kier2>
9.86806

>  <Kier3>
4.8595

>  <KierA1>
15.9959

>  <KierA2>
6.71876

>  <KierA3>
3.27602

>  <KierFlex>
3.58242

>  <logS>
-4.91453

>  <MNDO_dipole>
5.93008

>  <MNDO_E>
-136876

>  <MNDO_Eele>
-942166

>  <MNDO_HF>
-149.057

>  <MNDO_HOMO>
-8.9007

>  <MNDO_IP>
8.9007

>  <MNDO_LUMO>
-1.39629

>  <apol>
55.0057

>  <bpol>
28.5943

>  <mr>
10.4225

>  <dipole>
1.34525

>  <dipoleX>
0.279426

>  <dipoleY>
-1.22414

>  <dipoleZ>
-0.482802

>  <pmi>
10598.7

>  <pmiX>
8746.62

>  <pmiY>
1242.27

>  <pmiZ>
609.766

>  <rgyr>
5.05135

>  <a_acc>
3

>  <a_acid>
0

>  <a_base>
0

>  <a_don>
1

>  <a_hyd>
21

>  <vsa_acc>
40.7008

>  <vsa_acid>
0

>  <vsa_base>
0

>  <vsa_don>
5.68258

>  <vsa_hyd>
272.462

>  <vsa_other>
34.3576

>  <vsa_pol>
46.3833

>  <PM3_dipole>
5.51876

>  <PM3_E>
-125033

>  <PM3_Eele>
-924990

>  <PM3_HF>
-157.391

>  <PM3_HOMO>
-8.86766

>  <PM3_IP>
8.86766

>  <PM3_LUMO>
-1.08764

>  <SlogP>
2.7525

>  <SlogP_VSA0>
0

>  <SlogP_VSA1>
22.4538

>  <SlogP_VSA2>
68.0108

>  <SlogP_VSA3>
73.7583

>  <SlogP_VSA4>
54.0956

>  <SlogP_VSA5>
0

>  <SlogP_VSA6>
0

>  <SlogP_VSA7>
127.791

>  <SlogP_VSA8>
0

>  <SlogP_VSA9>
44.8803

>  <SMR>
10.1429

>  <SMR_VSA0>
71.5866

>  <SMR_VSA1>
51.129

>  <SMR_VSA2>
44.1486

>  <SMR_VSA3>
6.37115

>  <SMR_VSA4>
4.7171

>  <SMR_VSA5>
123.073

>  <SMR_VSA6>
89.9635

>  <SMR_VSA7>
0

>  <ASA>
635.103

>  <ASA+>
229.225

>  <ASA->
297.352

>  <ASA_H>
484.401

>  <ASA_P>
150.702

>  <CASA+>
1155.06

>  <CASA->
1498.65

>  <DASA>
68.1271

>  <DCASA>
343.59

>  <FASA+>
0.360925

>  <FASA->
0.468194

>  <FASA_H>
0.762712

>  <FASA_P>
0.237288

>  <FCASA+>
1.8187

>  <FCASA->
2.3597

>  <VSA>
387.179

>  <TPSA>
73.48

>  <density>
0.839017

>  <vdw_area>
366.953

>  <vdw_vol>
495.069

>  <vsurf_A>
2.86535

>  <vsurf_CP>
0.118668

>  <vsurf_CW1>
2.70796

>  <vsurf_CW2>
2.37944

>  <vsurf_CW3>
1.79838

>  <vsurf_CW4>
0.718591

>  <vsurf_CW5>
0.207366

>  <vsurf_CW6>
0.0656268

>  <vsurf_CW7>
0.0036543

>  <vsurf_CW8>
0

>  <vsurf_D1>
776.375

>  <vsurf_D2>
452.125

>  <vsurf_D3>
326.75

>  <vsurf_D4>
254

>  <vsurf_D5>
204.5

>  <vsurf_D6>
155.5

>  <vsurf_D7>
95.125

>  <vsurf_D8>
57

>  <vsurf_DD12>
1.11803

>  <vsurf_DD13>
0.5

>  <vsurf_DD23>
1.58114

>  <vsurf_DW12>
0.5

>  <vsurf_DW13>
5.38516

>  <vsurf_DW23>
5.02494

>  <vsurf_EDmin1>
-2.65083

>  <vsurf_EDmin2>
-2.58957

>  <vsurf_EDmin3>
-2.54805

>  <vsurf_EWmin1>
-5.34465

>  <vsurf_EWmin2>
-5.30784

>  <vsurf_EWmin3>
-5.30635

>  <vsurf_G>
1.36227

>  <vsurf_HB1>
391.875

>  <vsurf_HB2>
543.5

>  <vsurf_HB3>
448.625

>  <vsurf_HB4>
132.75

>  <vsurf_HB5>
31.75

>  <vsurf_HB6>
8

>  <vsurf_HB7>
0.75

>  <vsurf_HB8>
0

>  <vsurf_HL1>
0.116297

>  <vsurf_HL2>
0.0393701

>  <vsurf_ID1>
1.78364

>  <vsurf_ID2>
1.71242

>  <vsurf_ID3>
2.06763

>  <vsurf_ID4>
2.75549

>  <vsurf_ID5>
3.27593

>  <vsurf_ID6>
3.61763

>  <vsurf_ID7>
2.53765

>  <vsurf_ID8>
1.68378

>  <vsurf_IW1>
0.355854

>  <vsurf_IW2>
0.637627

>  <vsurf_IW3>
1.02667

>  <vsurf_IW4>
1.10575

>  <vsurf_IW5>
2.1274

>  <vsurf_IW6>
2.54645

>  <vsurf_IW7>
4.5871

>  <vsurf_IW8>
0

>  <vsurf_R>
1.42538

>  <vsurf_S>
580.898

>  <vsurf_V>
828

>  <vsurf_W1>
1444.75

>  <vsurf_W2>
977

>  <vsurf_W3>
528.375

>  <vsurf_W4>
149.375

>  <vsurf_W5>
38

>  <vsurf_W6>
10

>  <vsurf_W7>
0.75

>  <vsurf_W8>
0

>  <vsurf_Wp1>
1052.88

>  <vsurf_Wp2>
433.5

>  <vsurf_Wp3>
79.75

>  <vsurf_Wp4>
16.625

>  <vsurf_Wp5>
6.25

>  <vsurf_Wp6>
2

>  <vsurf_Wp7>
0

>  <vsurf_Wp8>
0

>  <dens>
1.17586

>  <glob>
0.0642434

>  <std_dim1>
4.61828

>  <std_dim2>
1.5107

>  <std_dim3>
1.17056

>  <vol>
353.25

>  <logP(o/w)>
2.612

$$$$
D7.cdx
  MOE2008           3D

 46 49  0  0  0  0  0  0  0  0999 V2000
   -6.9110   -2.9930   -0.2890 C   0  0  0  0  0  0  0  0  0  0  0  0
   -7.5570   -2.2990   -0.8190 H   0  0  0  0  0  0  0  0  0  0  0  0
   -7.4320   -3.7800    0.7350 C   0  0  0  0  0  0  0  0  0  0  0  0
   -8.4840   -3.6930    0.9950 H   0  0  0  0  0  0  0  0  0  0  0  0
   -6.6250   -4.6830    1.4330 C   0  0  0  0  0  0  0  0  0  0  0  0
   -7.0370   -5.2960    2.2280 H   0  0  0  0  0  0  0  0  0  0  0  0
   -5.2760   -4.7650    1.0660 C   0  0  0  0  0  0  0  0  0  0  0  0
   -4.7200   -3.9920    0.0450 C   0  0  0  0  0  0  0  0  0  0  0  0
   -5.5600   -3.0890   -0.6430 C   0  0  0  0  0  0  0  0  0  0  0  0
   -5.1650   -2.4690   -1.4440 H   0  0  0  0  0  0  0  0  0  0  0  0
   -4.2700   -5.5530    1.5710 N   0  0  0  0  0  0  0  0  0  0  0  0
   -4.3850   -6.2200    2.3230 H   0  0  0  0  0  0  0  0  0  0  0  0
   -3.0960   -5.3040    0.9100 C   0  0  0  0  0  0  0  0  0  0  0  0
   -2.1980   -5.8450    1.1800 H   0  0  0  0  0  0  0  0  0  0  0  0
   -3.3330   -4.3400   -0.0530 C   0  0  0  0  0  0  0  0  0  0  0  0
   -2.3420   -3.7980   -0.9730 C   0  0  0  0  0  0  0  0  0  0  0  0
   -0.9070   -4.2880   -0.9160 C   0  0  0  0  0  0  0  0  0  0  0  0
    0.0240   -3.4570   -0.3010 N   0  0  0  0  0  0  0  0  0  0  0  0
    1.4260   -3.8690   -0.2290 C   0  0  0  0  0  0  0  0  0  0  0  0
    1.6550   -4.0320    0.8310 H   0  0  0  0  0  0  0  0  0  0  0  0
    1.5880   -4.8170   -0.7530 H   0  0  0  0  0  0  0  0  0  0  0  0
    2.3530   -2.7900   -0.8050 C   0  0  0  0  0  0  0  0  0  0  0  0
    2.2010   -2.6990   -1.8870 H   0  0  0  0  0  0  0  0  0  0  0  0
    3.3900   -3.0860   -0.6320 H   0  0  0  0  0  0  0  0  0  0  0  0
    2.0600   -1.4680   -0.2230 N   0  0  0  0  0  0  0  0  0  0  0  0
    0.6480   -1.0680   -0.2820 C   0  0  0  0  0  0  0  0  0  0  0  0
    0.4830   -0.1180    0.2370 H   0  0  0  0  0  0  0  0  0  0  0  0
    0.4100   -0.9120   -1.3420 H   0  0  0  0  0  0  0  0  0  0  0  0
   -0.2660   -2.1500    0.3040 C   0  0  0  0  0  0  0  0  0  0  0  0
   -1.3120   -1.8640    0.1770 H   0  0  0  0  0  0  0  0  0  0  0  0
   -0.0810   -2.2540    1.3810 H   0  0  0  0  0  0  0  0  0  0  0  0
    2.9820   -0.6080    0.3620 C   0  0  0  0  0  0  0  0  0  0  0  0
    4.4190   -0.9360    0.2640 C   0  0  0  0  0  0  0  0  0  0  0  0
    5.0590   -0.9280   -0.9800 C   0  0  0  0  0  0  0  0  0  0  0  0
    4.5140   -0.7070   -1.8930 H   0  0  0  0  0  0  0  0  0  0  0  0
    6.4230   -1.2010   -1.0380 C   0  0  0  0  0  0  0  0  0  0  0  0
    7.1430   -1.4680    0.1200 C   0  0  0  0  0  0  0  0  0  0  0  0
    6.4990   -1.4560    1.3520 C   0  0  0  0  0  0  0  0  0  0  0  0
    5.1370   -1.1830    1.4380 C   0  0  0  0  0  0  0  0  0  0  0  0
    4.6470   -1.1640    2.4080 H   0  0  0  0  0  0  0  0  0  0  0  0
   -2.5950   -2.9340   -1.8090 O   0  0  0  0  0  0  0  0  0  0  0  0
   -0.6630   -5.3820   -1.4110 O   0  0  0  0  0  0  0  0  0  0  0  0
    2.6940    0.4220    0.9620 O   0  0  0  0  0  0  0  0  0  0  0  0
    7.0410   -1.2020   -2.2270 F   0  0  0  0  0  0  0  0  0  0  0  0
    8.4560   -1.7300    0.0510 F   0  0  0  0  0  0  0  0  0  0  0  0
    7.1890   -1.7060    2.4720 F   0  0  0  0  0  0  0  0  0  0  0  0
  1  2  1  0  0  0  0
  1  3  1  0  0  0  0
  1  9  2  0  0  0  0
  3  4  1  0  0  0  0
  3  5  2  0  0  0  0
  5  6  1  0  0  0  0
  5  7  1  0  0  0  0
  7  8  2  0  0  0  0
  7 11  1  0  0  0  0
  8  9  1  0  0  0  0
  8 15  1  0  0  0  0
  9 10  1  0  0  0  0
 11 12  1  0  0  0  0
 11 13  1  0  0  0  0
 13 14  1  0  0  0  0
 13 15  2  0  0  0  0
 15 16  1  0  0  0  0
 16 17  1  0  0  0  0
 16 41  2  0  0  0  0
 17 18  1  0  0  0  0
 17 42  2  0  0  0  0
 18 19  1  0  0  0  0
 18 29  1  0  0  0  0
 19 20  1  0  0  0  0
 19 21  1  0  0  0  0
 19 22  1  0  0  0  0
 22 23  1  0  0  0  0
 22 24  1  0  0  0  0
 22 25  1  0  0  0  0
 25 26  1  0  0  0  0
 25 32  1  0  0  0  0
 26 27  1  0  0  0  0
 26 28  1  0  0  0  0
 26 29  1  0  0  0  0
 29 30  1  0  0  0  0
 29 31  1  0  0  0  0
 32 33  1  0  0  0  0
 32 43  2  0  0  0  0
 33 34  1  0  0  0  0
 33 39  2  0  0  0  0
 34 35  1  0  0  0  0
 34 36  2  0  0  0  0
 36 37  1  0  0  0  0
 36 44  1  0  0  0  0
 37 38  2  0  0  0  0
 37 45  1  0  0  0  0
 38 39  1  0  0  0  0
 38 46  1  0  0  0  0
 39 40  1  0  0  0  0
M  END
>  <Activity>
4.2596

>  <AM1_dipole>
5.20538

>  <AM1_E>
-137074

>  <AM1_Eele>
-942311

>  <AM1_HF>
-127.621

>  <AM1_HOMO>
-8.95291

>  <AM1_IP>
8.95291

>  <AM1_LUMO>
-0.99261

>  <diameter>
16

>  <petitjean>
0.5

>  <petitjeanSC>
1

>  <radius>
8

>  <VDistEq>
3.76195

>  <VDistMa>
9.48895

>  <weinerPath>
2714

>  <weinerPol>
52

>  <BCUT_PEOE_0>
-2.71166

>  <BCUT_PEOE_1>
-0.655438

>  <BCUT_PEOE_2>
0.655377

>  <BCUT_PEOE_3>
2.65062

>  <BCUT_SLOGP_0>
-2.86004

>  <BCUT_SLOGP_1>
-0.475112

>  <BCUT_SLOGP_2>
0.822773

>  <BCUT_SLOGP_3>
2.50291

>  <BCUT_SMR_0>
-2.43203

>  <BCUT_SMR_1>
-0.433375

>  <BCUT_SMR_2>
0.826244

>  <BCUT_SMR_3>
2.92022

>  <GCUT_PEOE_0>
-0.860602

>  <GCUT_PEOE_1>
-0.454611

>  <GCUT_PEOE_2>
0.0615559

>  <GCUT_PEOE_3>
2.65518

>  <GCUT_SLOGP_0>
-0.976486

>  <GCUT_SLOGP_1>
-0.335835

>  <GCUT_SLOGP_2>
0.253245

>  <GCUT_SLOGP_3>
2.62845

>  <GCUT_SMR_0>
-0.508921

>  <GCUT_SMR_1>
-0.215664

>  <GCUT_SMR_2>
0.193495

>  <GCUT_SMR_3>
2.91995

>  <a_aro>
15

>  <a_count>
46

>  <a_IC>
83.5805

>  <a_ICM>
1.81697

>  <a_nH>
16

>  <b_1rotN>
5

>  <b_1rotR>
0.151515

>  <b_ar>
16

>  <b_count>
49

>  <b_double>
3

>  <b_rotN>
5

>  <b_rotR>
0.151515

>  <b_single>
30

>  <b_triple>
0

>  <chi0v>
15.6229

>  <chi0v_C>
11.8699

>  <chi1v>
9.20084

>  <chi1v_C>
5.77073

>  <chiral>
0

>  <chiral_u>
0

>  <nmol>
1

>  <reactive>
0

>  <rings>
4

>  <Weight>
415.371

>  <a_heavy>
30

>  <a_nB>
0

>  <a_nBr>
0

>  <a_nC>
21

>  <a_nCl>
0

>  <a_nF>
3

>  <a_nI>
0

>  <a_nN>
3

>  <a_nO>
3

>  <a_nP>
0

>  <a_nS>
0

>  <b_heavy>
33

>  <chi0>
21.4135

>  <chi0_C>
13.5517

>  <chi1>
14.3631

>  <chi1_C>
7.69107

>  <FCharge>
0

>  <VAdjEq>
0.378242

>  <VAdjMa>
6.04439

>  <zagreb>
162

>  <balabanJ>
1.27674

>  <PEOE_PC+>
2.67667

>  <PEOE_PC->
-2.67667

>  <PEOE_RPC+>
0.110249

>  <PEOE_RPC->
0.134475

>  <PEOE_VSA+0>
80.6318

>  <PEOE_VSA+1>
66.1893

>  <PEOE_VSA+2>
0

>  <PEOE_VSA+3>
35.6815

>  <PEOE_VSA+4>
0

>  <PEOE_VSA+5>
34.3576

>  <PEOE_VSA+6>
0

>  <PEOE_VSA-0>
36.7647

>  <PEOE_VSA-1>
36.7647

>  <PEOE_VSA-2>
0

>  <PEOE_VSA-3>
11.9086

>  <PEOE_VSA-4>
23.8173

>  <PEOE_VSA-5>
40.7008

>  <PEOE_VSA-6>
0.136891

>  <PEOE_VSA_FHYD>
0.730177

>  <PEOE_VSA_FNEG>
0.409025

>  <PEOE_VSA_FPNEG>
0.176194

>  <PEOE_VSA_FPOL>
0.269823

>  <PEOE_VSA_FPOS>
0.590975

>  <PEOE_VSA_FPPOS>
0.0936293

>  <PEOE_VSA_HYD>
267.941

>  <PEOE_VSA_NEG>
150.093

>  <PEOE_VSA_PNEG>
64.6549

>  <PEOE_VSA_POL>
99.0125

>  <PEOE_VSA_POS>
216.86

>  <PEOE_VSA_PPOS>
34.3576

>  <PC+>
5.039

>  <PC->
-5.04

>  <Q_PC+>
5.039

>  <Q_PC->
-5.04

>  <Q_RPC+>
0.130185

>  <Q_RPC->
0.130952

>  <Q_VSA_FHYD>
0.582528

>  <Q_VSA_FNEG>
0.478563

>  <Q_VSA_FPNEG>
0.15655

>  <Q_VSA_FPOL>
0.417472

>  <Q_VSA_FPOS>
0.521437

>  <Q_VSA_FPPOS>
0.260921

>  <Q_VSA_HYD>
213.761

>  <Q_VSA_NEG>
175.61

>  <Q_VSA_PNEG>
57.4467

>  <Q_VSA_POL>
153.193

>  <Q_VSA_POS>
191.343

>  <Q_VSA_PPOS>
95.7459

>  <RPC+>
0.130185

>  <RPC->
0.130952

>  <lip_acc>
6

>  <lip_don>
1

>  <lip_druglike>
1

>  <lip_violation>
0

>  <opr_brigid>
22

>  <opr_leadlike>
1

>  <opr_nring>
4

>  <opr_nrot>
5

>  <opr_violation>
0

>  <E>
88.8916

>  <E_ang>
8.31771

>  <E_ele>
27.9049

>  <E_nb>
72.5854

>  <E_oop>
0.0226532

>  <E_sol>
-21.445

>  <E_stb>
0.384105

>  <E_str>
5.48941

>  <E_strain>
0.00590542

>  <E_tor>
2.09234

>  <E_vdw>
44.6806

>  <E_rele>
0

>  <E_rnb>
-5.68434e-014

>  <E_rsol>
-5.68434e-014

>  <E_rvdw>
0

>  <Kier1>
23.168

>  <Kier2>
9.86806

>  <Kier3>
4.8595

>  <KierA1>
15.9959

>  <KierA2>
6.71876

>  <KierA3>
3.27602

>  <KierFlex>
3.58242

>  <logS>
-4.91453

>  <MNDO_dipole>
5.72843

>  <MNDO_E>
-136877

>  <MNDO_Eele>
-933869

>  <MNDO_HF>
-149.808

>  <MNDO_HOMO>
-8.92868

>  <MNDO_IP>
8.92868

>  <MNDO_LUMO>
-1.35139

>  <apol>
55.0057

>  <bpol>
28.5943

>  <mr>
10.4225

>  <dipole>
1.06666

>  <dipoleX>
-0.451875

>  <dipoleY>
-0.608279

>  <dipoleZ>
0.750715

>  <pmi>
11276.8

>  <pmiX>
9616.73

>  <pmiY>
1113.6

>  <pmiZ>
546.437

>  <rgyr>
5.21044

>  <a_acc>
3

>  <a_acid>
0

>  <a_base>
0

>  <a_don>
1

>  <a_hyd>
21

>  <vsa_acc>
40.7008

>  <vsa_acid>
0

>  <vsa_base>
0

>  <vsa_don>
5.68258

>  <vsa_hyd>
272.462

>  <vsa_other>
34.3576

>  <vsa_pol>
46.3833

>  <PM3_dipole>
5.46292

>  <PM3_E>
-125037

>  <PM3_Eele>
-926238

>  <PM3_HF>
-162.187

>  <PM3_HOMO>
-8.90743

>  <PM3_IP>
8.90743

>  <PM3_LUMO>
-1.0443

>  <SlogP>
2.7525

>  <SlogP_VSA0>
0

>  <SlogP_VSA1>
22.4538

>  <SlogP_VSA2>
68.0108

>  <SlogP_VSA3>
73.7583

>  <SlogP_VSA4>
54.0956

>  <SlogP_VSA5>
0

>  <SlogP_VSA6>
0

>  <SlogP_VSA7>
127.791

>  <SlogP_VSA8>
0

>  <SlogP_VSA9>
44.8803

>  <SMR>
10.1429

>  <SMR_VSA0>
71.5866

>  <SMR_VSA1>
51.129

>  <SMR_VSA2>
44.1486

>  <SMR_VSA3>
6.37115

>  <SMR_VSA4>
4.7171

>  <SMR_VSA5>
123.073

>  <SMR_VSA6>
89.9635

>  <SMR_VSA7>
0

>  <ASA>
637.62

>  <ASA+>
229.934

>  <ASA->
301.062

>  <ASA_H>
483.581

>  <ASA_P>
154.039

>  <CASA+>
1158.64

>  <CASA->
1517.35

>  <DASA>
71.1276

>  <DCASA>
358.713

>  <FASA+>
0.360614

>  <FASA->
0.472165

>  <FASA_H>
0.758416

>  <FASA_P>
0.241584

>  <FCASA+>
1.81713

>  <FCASA->
2.37971

>  <VSA>
388.528

>  <TPSA>
73.48

>  <density>
0.839017

>  <vdw_area>
366.953

>  <vdw_vol>
495.069

>  <vsurf_A>
2.07113

>  <vsurf_CP>
0.1174

>  <vsurf_CW1>
2.69855

>  <vsurf_CW2>
2.36696

>  <vsurf_CW3>
1.77934

>  <vsurf_CW4>
0.661568

>  <vsurf_CW5>
0.20246

>  <vsurf_CW6>
0.0580633

>  <vsurf_CW7>
0.00629227

>  <vsurf_CW8>
0

>  <vsurf_D1>
786.5

>  <vsurf_D2>
455.875

>  <vsurf_D3>
324.125

>  <vsurf_D4>
256.375

>  <vsurf_D5>
210.375

>  <vsurf_D6>
163.875

>  <vsurf_D7>
104.875

>  <vsurf_D8>
65.5

>  <vsurf_DD12>
5.40833

>  <vsurf_DD13>
5.24404

>  <vsurf_DD23>
0.5

>  <vsurf_DW12>
0.707107

>  <vsurf_DW13>
5.40833

>  <vsurf_DW23>
5.89491

>  <vsurf_EDmin1>
-2.64556

>  <vsurf_EDmin2>
-2.64375

>  <vsurf_EDmin3>
-2.62369

>  <vsurf_EWmin1>
-5.49366

>  <vsurf_EWmin2>
-5.38782

>  <vsurf_EWmin3>
-5.37347

>  <vsurf_G>
1.36486

>  <vsurf_HB1>
396.375

>  <vsurf_HB2>
542.625

>  <vsurf_HB3>
433.375

>  <vsurf_HB4>
124.125

>  <vsurf_HB5>
30.25

>  <vsurf_HB6>
7.75

>  <vsurf_HB7>
1.125

>  <vsurf_HB8>
0

>  <vsurf_HL1>
0.112997

>  <vsurf_HL2>
0.03608

>  <vsurf_ID1>
1.97762

>  <vsurf_ID2>
1.97844

>  <vsurf_ID3>
2.39374

>  <vsurf_ID4>
3.07453

>  <vsurf_ID5>
3.60978

>  <vsurf_ID6>
3.72163

>  <vsurf_ID7>
2.60439

>  <vsurf_ID8>
2.02158

>  <vsurf_IW1>
0.455665

>  <vsurf_IW2>
0.645361

>  <vsurf_IW3>
1.13633

>  <vsurf_IW4>
0.669992

>  <vsurf_IW5>
0.925383

>  <vsurf_IW6>
1.6502

>  <vsurf_IW7>
3.21087

>  <vsurf_IW8>
0

>  <vsurf_R>
1.4251

>  <vsurf_S>
583.993

>  <vsurf_V>
832.25

>  <vsurf_W1>
1440.38

>  <vsurf_W2>
967

>  <vsurf_W3>
513.25

>  <vsurf_W4>
141.125

>  <vsurf_W5>
36.625

>  <vsurf_W6>
9.25

>  <vsurf_W7>
1.125

>  <vsurf_W8>
0

>  <vsurf_Wp1>
1044

>  <vsurf_Wp2>
424.375

>  <vsurf_Wp3>
79.875

>  <vsurf_Wp4>
17

>  <vsurf_Wp5>
6.375

>  <vsurf_Wp6>
1.5

>  <vsurf_Wp7>
0

>  <vsurf_Wp8>
0

>  <dens>
1.17836

>  <glob>
0.0558905

>  <std_dim1>
4.75159

>  <std_dim2>
1.35813

>  <std_dim3>
1.12333

>  <vol>
352.5

>  <logP(o/w)>
2.612

$$$$
D7.cdx
  MOE2008           3D

 46 49  0  0  0  0  0  0  0  0999 V2000
   -6.4770   -6.4890    0.0860 C   0  0  0  0  0  0  0  0  0  0  0  0
   -7.1650   -5.6910   -0.1800 H   0  0  0  0  0  0  0  0  0  0  0  0
   -6.9240   -7.5640    0.8510 C   0  0  0  0  0  0  0  0  0  0  0  0
   -7.9610   -7.5950    1.1760 H   0  0  0  0  0  0  0  0  0  0  0  0
   -6.0620   -8.6050    1.2060 C   0  0  0  0  0  0  0  0  0  0  0  0
   -6.4170   -9.4410    1.8000 H   0  0  0  0  0  0  0  0  0  0  0  0
   -4.7350   -8.5270    0.7660 C   0  0  0  0  0  0  0  0  0  0  0  0
   -4.2530   -7.4650   -0.0020 C   0  0  0  0  0  0  0  0  0  0  0  0
   -5.1470   -6.4280   -0.3450 C   0  0  0  0  0  0  0  0  0  0  0  0
   -4.8100   -5.5840   -0.9430 H   0  0  0  0  0  0  0  0  0  0  0  0
   -3.6870   -9.3940    0.9620 N   0  0  0  0  0  0  0  0  0  0  0  0
   -3.7460  -10.2580    1.4840 H   0  0  0  0  0  0  0  0  0  0  0  0
   -2.5580   -8.9190    0.3480 C   0  0  0  0  0  0  0  0  0  0  0  0
   -1.6360   -9.4850    0.4000 H   0  0  0  0  0  0  0  0  0  0  0  0
   -2.8670   -7.7200   -0.2690 C   0  0  0  0  0  0  0  0  0  0  0  0
   -1.9400   -6.8960   -1.0330 C   0  0  0  0  0  0  0  0  0  0  0  0
   -0.5010   -7.3430   -1.2080 C   0  0  0  0  0  0  0  0  0  0  0  0
    0.4510   -6.7620   -0.3760 N   0  0  0  0  0  0  0  0  0  0  0  0
    1.8530   -7.1760   -0.4780 C   0  0  0  0  0  0  0  0  0  0  0  0
    2.0880   -7.7190    0.4450 H   0  0  0  0  0  0  0  0  0  0  0  0
    1.9990   -7.8660   -1.3150 H   0  0  0  0  0  0  0  0  0  0  0  0
    2.7850   -5.9660   -0.6300 C   0  0  0  0  0  0  0  0  0  0  0  0
    2.6130   -5.4840   -1.6000 H   0  0  0  0  0  0  0  0  0  0  0  0
    3.8260   -6.2940   -0.6080 H   0  0  0  0  0  0  0  0  0  0  0  0
    2.5050   -4.9490    0.3970 N   0  0  0  0  0  0  0  0  0  0  0  0
    1.1030   -4.5280    0.4730 C   0  0  0  0  0  0  0  0  0  0  0  0
    0.9450   -3.8210    1.2930 H   0  0  0  0  0  0  0  0  0  0  0  0
    0.8740   -4.0080   -0.4660 H   0  0  0  0  0  0  0  0  0  0  0  0
    0.1760   -5.7380    0.6440 C   0  0  0  0  0  0  0  0  0  0  0  0
   -0.8660   -5.4130    0.6230 H   0  0  0  0  0  0  0  0  0  0  0  0
    0.3540   -6.2120    1.6170 H   0  0  0  0  0  0  0  0  0  0  0  0
    3.4330   -4.3750    1.2590 C   0  0  0  0  0  0  0  0  0  0  0  0
    4.8310   -4.8410    1.1980 C   0  0  0  0  0  0  0  0  0  0  0  0
    5.2550   -5.9740    1.9060 C   0  0  0  0  0  0  0  0  0  0  0  0
    6.6050   -6.3450    1.8330 C   0  0  0  0  0  0  0  0  0  0  0  0
    7.5060   -5.5880    1.0730 C   0  0  0  0  0  0  0  0  0  0  0  0
    8.5540   -5.8730    1.0170 H   0  0  0  0  0  0  0  0  0  0  0  0
    7.0710   -4.4540    0.3850 C   0  0  0  0  0  0  0  0  0  0  0  0
    7.7780   -3.8650   -0.1950 H   0  0  0  0  0  0  0  0  0  0  0  0
    5.7330   -4.0750    0.4490 C   0  0  0  0  0  0  0  0  0  0  0  0
    5.3960   -3.1840   -0.0770 H   0  0  0  0  0  0  0  0  0  0  0  0
   -2.2520   -5.8250   -1.5480 O   0  0  0  0  0  0  0  0  0  0  0  0
   -0.2780   -8.1940   -2.0630 O   0  0  0  0  0  0  0  0  0  0  0  0
    3.1840   -3.4910    2.0710 O   0  0  0  0  0  0  0  0  0  0  0  0
    4.1250   -6.8920    2.8470 Cl  0  0  0  0  0  0  0  0  0  0  0  0
    7.2300   -7.7320    2.6560 Cl  0  0  0  0  0  0  0  0  0  0  0  0
  1  2  1  0  0  0  0
  1  3  1  0  0  0  0
  1  9  2  0  0  0  0
  3  4  1  0  0  0  0
  3  5  2  0  0  0  0
  5  6  1  0  0  0  0
  5  7  1  0  0  0  0
  7  8  2  0  0  0  0
  7 11  1  0  0  0  0
  8  9  1  0  0  0  0
  8 15  1  0  0  0  0
  9 10  1  0  0  0  0
 11 12  1  0  0  0  0
 11 13  1  0  0  0  0
 13 14  1  0  0  0  0
 13 15  2  0  0  0  0
 15 16  1  0  0  0  0
 16 17  1  0  0  0  0
 16 42  2  0  0  0  0
 17 18  1  0  0  0  0
 17 43  2  0  0  0  0
 18 19  1  0  0  0  0
 18 29  1  0  0  0  0
 19 20  1  0  0  0  0
 19 21  1  0  0  0  0
 19 22  1  0  0  0  0
 22 23  1  0  0  0  0
 22 24  1  0  0  0  0
 22 25  1  0  0  0  0
 25 26  1  0  0  0  0
 25 32  1  0  0  0  0
 26 27  1  0  0  0  0
 26 28  1  0  0  0  0
 26 29  1  0  0  0  0
 29 30  1  0  0  0  0
 29 31  1  0  0  0  0
 32 33  1  0  0  0  0
 32 44  2  0  0  0  0
 33 34  1  0  0  0  0
 33 40  2  0  0  0  0
 34 35  2  0  0  0  0
 34 45  1  0  0  0  0
 35 36  1  0  0  0  0
 35 46  1  0  0  0  0
 36 37  1  0  0  0  0
 36 38  2  0  0  0  0
 38 39  1  0  0  0  0
 38 40  1  0  0  0  0
 40 41  1  0  0  0  0
M  END
>  <Activity>
4.7447

>  <AM1_dipole>
3.12311

>  <AM1_E>
-121072

>  <AM1_Eele>
-886839

>  <AM1_HF>
-8.50767

>  <AM1_HOMO>
-8.89526

>  <AM1_IP>
8.89526

>  <AM1_LUMO>
-0.49987

>  <diameter>
15

>  <petitjean>
0.466667

>  <petitjeanSC>
0.875

>  <radius>
8

>  <VDistEq>
3.70032

>  <VDistMa>
9.394

>  <weinerPath>
2445

>  <weinerPol>
50

>  <BCUT_PEOE_0>
-2.71159

>  <BCUT_PEOE_1>
-0.63947

>  <BCUT_PEOE_2>
0.655416

>  <BCUT_PEOE_3>
2.65067

>  <BCUT_SLOGP_0>
-2.85992

>  <BCUT_SLOGP_1>
-0.456015

>  <BCUT_SLOGP_2>
0.722239

>  <BCUT_SLOGP_3>
2.50581

>  <BCUT_SMR_0>
-2.43195

>  <BCUT_SMR_1>
-0.428971

>  <BCUT_SMR_2>
0.826485

>  <BCUT_SMR_3>
2.92053

>  <GCUT_PEOE_0>
-0.860602

>  <GCUT_PEOE_1>
-0.414689

>  <GCUT_PEOE_2>
0.0665732

>  <GCUT_PEOE_3>
2.65105

>  <GCUT_SLOGP_0>
-0.976482

>  <GCUT_SLOGP_1>
-0.335813

>  <GCUT_SLOGP_2>
0.189232

>  <GCUT_SLOGP_3>
2.64477

>  <GCUT_SMR_0>
-0.508835

>  <GCUT_SMR_1>
-0.182592

>  <GCUT_SMR_2>
0.241859

>  <GCUT_SMR_3>
2.92706

>  <a_aro>
15

>  <a_count>
46

>  <a_IC>
80.8485

>  <a_ICM>
1.75758

>  <a_nH>
17

>  <b_1rotN>
5

>  <b_1rotR>
0.15625

>  <b_ar>
16

>  <b_count>
49

>  <b_double>
3

>  <b_rotN>
5

>  <b_rotR>
0.15625

>  <b_single>
30

>  <b_triple>
0

>  <chi0v>
16.8342

>  <chi0v_C>
11.9472

>  <chi1v>
9.85711

>  <chi1v_C>
5.86004

>  <chiral>
0

>  <chiral_u>
0

>  <nmol>
1

>  <reactive>
0

>  <rings>
4

>  <Weight>
430.291

>  <a_heavy>
29

>  <a_nB>
0

>  <a_nBr>
0

>  <a_nC>
21

>  <a_nCl>
2

>  <a_nF>
0

>  <a_nI>
0

>  <a_nN>
3

>  <a_nO>
3

>  <a_nP>
0

>  <a_nS>
0

>  <b_heavy>
32

>  <chi0>
20.5432

>  <chi0_C>
13.6814

>  <chi1>
13.9692

>  <chi1_C>
7.87457

>  <FCharge>
0

>  <VAdjEq>
0.388286

>  <VAdjMa>
6

>  <zagreb>
156

>  <balabanJ>
1.28703

>  <PEOE_PC+>
2.36291

>  <PEOE_PC->
-2.36291

>  <PEOE_RPC+>
0.124888

>  <PEOE_RPC->
0.152331

>  <PEOE_VSA+0>
78.4233

>  <PEOE_VSA+1>
81.7028

>  <PEOE_VSA+2>
0

>  <PEOE_VSA+3>
8.61901

>  <PEOE_VSA+4>
0

>  <PEOE_VSA+5>
34.3576

>  <PEOE_VSA+6>
0

>  <PEOE_VSA-0>
36.7647

>  <PEOE_VSA-1>
108.184

>  <PEOE_VSA-2>
0

>  <PEOE_VSA-3>
0

>  <PEOE_VSA-4>
0

>  <PEOE_VSA-5>
40.7008

>  <PEOE_VSA-6>
0.136891

>  <PEOE_VSA_FHYD>
0.806641

>  <PEOE_VSA_FNEG>
0.477736

>  <PEOE_VSA_FPNEG>
0.105011

>  <PEOE_VSA_FPOL>
0.193359

>  <PEOE_VSA_FPOS>
0.522264

>  <PEOE_VSA_FPPOS>
0.0883482

>  <PEOE_VSA_HYD>
313.693

>  <PEOE_VSA_NEG>
185.786

>  <PEOE_VSA_PNEG>
40.8377

>  <PEOE_VSA_POL>
75.1952

>  <PEOE_VSA_POS>
203.103

>  <PEOE_VSA_PPOS>
34.3576

>  <PC+>
4.973

>  <PC->
-4.974

>  <Q_PC+>
4.973

>  <Q_PC->
-4.974

>  <Q_RPC+>
0.131912

>  <Q_RPC->
0.13269

>  <Q_VSA_FHYD>
0.606076

>  <Q_VSA_FNEG>
0.543351

>  <Q_VSA_FPNEG>
0.14772

>  <Q_VSA_FPOL>
0.393924

>  <Q_VSA_FPOS>
0.456649

>  <Q_VSA_FPPOS>
0.246204

>  <Q_VSA_HYD>
235.696

>  <Q_VSA_NEG>
211.303

>  <Q_VSA_PNEG>
57.4467

>  <Q_VSA_POL>
153.193

>  <Q_VSA_POS>
177.586

>  <Q_VSA_PPOS>
95.7459

>  <RPC+>
0.131912

>  <RPC->
0.13269

>  <lip_acc>
6

>  <lip_don>
1

>  <lip_druglike>
1

>  <lip_violation>
0

>  <opr_brigid>
22

>  <opr_leadlike>
1

>  <opr_nring>
4

>  <opr_nrot>
5

>  <opr_violation>
0

>  <E>
93.069

>  <E_ang>
8.33743

>  <E_ele>
28.3293

>  <E_nb>
74.8839

>  <E_oop>
0.0230217

>  <E_sol>
-21.1999

>  <E_stb>
0.462222

>  <E_str>
6.06285

>  <E_strain>
0.00421379

>  <E_tor>
3.29955

>  <E_vdw>
46.5546

>  <E_rele>
0

>  <E_rnb>
0

>  <E_rsol>
0

>  <E_rvdw>
0

>  <Kier1>
22.2031

>  <Kier2>
9.6465

>  <Kier3>
4.62109

>  <KierA1>
17.1856

>  <KierA2>
7.3937

>  <KierA3>
3.51636

>  <KierFlex>
4.38155

>  <logS>
-5.49817

>  <MNDO_dipole>
2.56249

>  <MNDO_E>
-120389

>  <MNDO_Eele>
-872501

>  <MNDO_HF>
-24.2373

>  <MNDO_HOMO>
-8.84026

>  <MNDO_IP>
8.84026

>  <MNDO_LUMO>
-0.86528

>  <apol>
58.3615

>  <bpol>
26.9185

>  <mr>
11.2584

>  <dipole>
0.6856

>  <dipoleX>
0.548127

>  <dipoleY>
-0.410561

>  <dipoleZ>
0.0323062

>  <pmi>
10290.5

>  <pmiX>
8527.61

>  <pmiY>
990.267

>  <pmiZ>
772.658

>  <rgyr>
4.89033

>  <a_acc>
3

>  <a_acid>
0

>  <a_base>
0

>  <a_don>
1

>  <a_hyd>
20

>  <vsa_acc>
40.7008

>  <vsa_acid>
0

>  <vsa_base>
0

>  <vsa_don>
5.68258

>  <vsa_hyd>
293.686

>  <vsa_other>
34.3576

>  <vsa_pol>
46.3833

>  <PM3_dipole>
3.79951

>  <PM3_E>
-109544

>  <PM3_Eele>
-875310

>  <PM3_HF>
-45.2792

>  <PM3_HOMO>
-8.82394

>  <PM3_IP>
8.82394

>  <PM3_LUMO>
-0.54974

>  <SlogP>
3.642

>  <SlogP_VSA0>
0

>  <SlogP_VSA1>
22.4538

>  <SlogP_VSA2>
40.6477

>  <SlogP_VSA3>
73.7583

>  <SlogP_VSA4>
54.0956

>  <SlogP_VSA5>
0

>  <SlogP_VSA6>
7.00121

>  <SlogP_VSA7>
145.434

>  <SlogP_VSA8>
0

>  <SlogP_VSA9>
78.2973

>  <SMR>
11.1575

>  <SMR_VSA0>
71.5866

>  <SMR_VSA1>
6.24863

>  <SMR_VSA2>
16.7855

>  <SMR_VSA3>
13.3724

>  <SMR_VSA4>
4.7171

>  <SMR_VSA5>
140.717

>  <SMR_VSA6>
89.9635

>  <SMR_VSA7>
78.2973

>  <ASA>
651.96

>  <ASA+>
225.997

>  <ASA->
328.636

>  <ASA_H>
499.681

>  <ASA_P>
152.279

>  <CASA+>
1123.88

>  <CASA->
1634.64

>  <DASA>
102.64

>  <DCASA>
510.756

>  <FASA+>
0.346642

>  <FASA->
0.504075

>  <FASA_H>
0.76643

>  <FASA_P>
0.23357

>  <FCASA+>
1.72385

>  <FCASA->
2.50727

>  <VSA>
408.588

>  <TPSA>
73.48

>  <density>
0.831394

>  <vdw_area>
388.889

>  <vdw_vol>
517.554

>  <vsurf_A>
1.87647

>  <vsurf_CP>
0.152471

>  <vsurf_CW1>
2.64016

>  <vsurf_CW2>
2.11488

>  <vsurf_CW3>
1.21702

>  <vsurf_CW4>
0.520129

>  <vsurf_CW5>
0.210179

>  <vsurf_CW6>
0.0665439

>  <vsurf_CW7>
0.00539937

>  <vsurf_CW8>
0

>  <vsurf_D1>
987.875

>  <vsurf_D2>
580.5

>  <vsurf_D3>
429

>  <vsurf_D4>
366

>  <vsurf_D5>
321.625

>  <vsurf_D6>
269.75

>  <vsurf_D7>
161.625

>  <vsurf_D8>
84.25

>  <vsurf_DD12>
0.707107

>  <vsurf_DD13>
8.39643

>  <vsurf_DD23>
8.60233

>  <vsurf_DW12>
5.52268

>  <vsurf_DW13>
5.17204

>  <vsurf_DW23>
0.5

>  <vsurf_EDmin1>
-2.64507

>  <vsurf_EDmin2>
-2.63521

>  <vsurf_EDmin3>
-2.62628

>  <vsurf_EWmin1>
-5.75555

>  <vsurf_EWmin2>
-5.38045

>  <vsurf_EWmin3>
-5.36572

>  <vsurf_G>
1.34809

>  <vsurf_HB1>
305

>  <vsurf_HB2>
340.75

>  <vsurf_HB3>
300.5

>  <vsurf_HB4>
103

>  <vsurf_HB5>
34.375

>  <vsurf_HB6>
9.5

>  <vsurf_HB7>
1.125

>  <vsurf_HB8>
0

>  <vsurf_HL1>
0.0952797

>  <vsurf_HL2>
0.0293716

>  <vsurf_ID1>
0.490307

>  <vsurf_ID2>
0.524482

>  <vsurf_ID3>
0.489985

>  <vsurf_ID4>
0.507449

>  <vsurf_ID5>
0.562452

>  <vsurf_ID6>
0.777254

>  <vsurf_ID7>
1.02294

>  <vsurf_ID8>
0.968571

>  <vsurf_IW1>
0.475773

>  <vsurf_IW2>
0.815028

>  <vsurf_IW3>
1.39997

>  <vsurf_IW4>
1.66012

>  <vsurf_IW5>
1.45643

>  <vsurf_IW6>
1.89182

>  <vsurf_IW7>
2.21925

>  <vsurf_IW8>
0

>  <vsurf_R>
1.47047

>  <vsurf_S>
599.128

>  <vsurf_V>
881

>  <vsurf_W1>
1435

>  <vsurf_W2>
813.875

>  <vsurf_W3>
380.5

>  <vsurf_W4>
120

>  <vsurf_W5>
40.875

>  <vsurf_W6>
10.75

>  <vsurf_W7>
1.125

>  <vsurf_W8>
0

>  <vsurf_Wp1>
1130

>  <vsurf_Wp2>
473.125

>  <vsurf_Wp3>
80

>  <vsurf_Wp4>
17

>  <vsurf_Wp5>
6.5

>  <vsurf_Wp6>
1.25

>  <vsurf_Wp7>
0

>  <vsurf_Wp8>
0

>  <dens>
1.15051

>  <glob>
0.0516886

>  <std_dim1>
4.67254

>  <std_dim2>
1.46819

>  <std_dim3>
1.06231

>  <vol>
374

>  <logP(o/w)>
3.263

$$$$
D7.cdx
  MOE2008           3D

 46 49  0  0  0  0  0  0  0  0999 V2000
   -6.1500  -10.4760   -0.9470 C   0  0  0  0  0  0  0  0  0  0  0  0
   -6.7400   -9.9860   -1.7180 H   0  0  0  0  0  0  0  0  0  0  0  0
   -6.7510  -10.8550    0.2500 C   0  0  0  0  0  0  0  0  0  0  0  0
   -7.8090  -10.6580    0.4040 H   0  0  0  0  0  0  0  0  0  0  0  0
   -6.0170  -11.4870    1.2570 C   0  0  0  0  0  0  0  0  0  0  0  0
   -6.4910  -11.7830    2.1870 H   0  0  0  0  0  0  0  0  0  0  0  0
   -4.6570  -11.7240    1.0180 C   0  0  0  0  0  0  0  0  0  0  0  0
   -4.0220  -11.3570   -0.1700 C   0  0  0  0  0  0  0  0  0  0  0  0
   -4.7900  -10.7200   -1.1700 C   0  0  0  0  0  0  0  0  0  0  0  0
   -4.3320  -10.4200   -2.1090 H   0  0  0  0  0  0  0  0  0  0  0  0
   -3.7100  -12.3190    1.8170 N   0  0  0  0  0  0  0  0  0  0  0  0
   -3.8900  -12.6890    2.7410 H   0  0  0  0  0  0  0  0  0  0  0  0
   -2.4980  -12.3390    1.1800 C   0  0  0  0  0  0  0  0  0  0  0  0
   -1.6380  -12.7790    1.6680 H   0  0  0  0  0  0  0  0  0  0  0  0
   -2.6480  -11.7530   -0.0640 C   0  0  0  0  0  0  0  0  0  0  0  0
   -1.5930  -11.5830   -1.0560 C   0  0  0  0  0  0  0  0  0  0  0  0
   -0.1840  -12.0520   -0.7500 C   0  0  0  0  0  0  0  0  0  0  0  0
    0.7450  -11.0820   -0.3850 N   0  0  0  0  0  0  0  0  0  0  0  0
    2.1190  -11.4780   -0.0720 C   0  0  0  0  0  0  0  0  0  0  0  0
    2.2690  -11.2820    0.9970 H   0  0  0  0  0  0  0  0  0  0  0  0
    2.2700  -12.5490   -0.2380 H   0  0  0  0  0  0  0  0  0  0  0  0
    3.1310  -10.6740   -0.8990 C   0  0  0  0  0  0  0  0  0  0  0  0
    3.0460  -10.9400   -1.9590 H   0  0  0  0  0  0  0  0  0  0  0  0
    4.1430  -10.9220   -0.5730 H   0  0  0  0  0  0  0  0  0  0  0  0
    2.8640   -9.2280   -0.8050 N   0  0  0  0  0  0  0  0  0  0  0  0
    1.4840   -8.8360   -1.1110 C   0  0  0  0  0  0  0  0  0  0  0  0
    1.3310   -7.7650   -0.9470 H   0  0  0  0  0  0  0  0  0  0  0  0
    1.3300   -9.0330   -2.1790 H   0  0  0  0  0  0  0  0  0  0  0  0
    0.4770   -9.6400   -0.2790 C   0  0  0  0  0  0  0  0  0  0  0  0
   -0.5410   -9.3920   -0.5850 H   0  0  0  0  0  0  0  0  0  0  0  0
    0.5760   -9.3810    0.7820 H   0  0  0  0  0  0  0  0  0  0  0  0
    3.7920   -8.2460   -0.4730 C   0  0  0  0  0  0  0  0  0  0  0  0
    5.1900   -8.6520   -0.2370 C   0  0  0  0  0  0  0  0  0  0  0  0
    6.0800   -8.8730   -1.2950 C   0  0  0  0  0  0  0  0  0  0  0  0
    7.4020   -9.2310   -1.0210 C   0  0  0  0  0  0  0  0  0  0  0  0
    8.1010   -9.4080   -1.8340 H   0  0  0  0  0  0  0  0  0  0  0  0
    7.8250   -9.3530    0.3030 C   0  0  0  0  0  0  0  0  0  0  0  0
    6.9430   -9.1180    1.3590 C   0  0  0  0  0  0  0  0  0  0  0  0
    7.2780   -9.2060    2.3900 H   0  0  0  0  0  0  0  0  0  0  0  0
    5.6210   -8.7600    1.0910 C   0  0  0  0  0  0  0  0  0  0  0  0
    4.9340   -8.5650    1.9110 H   0  0  0  0  0  0  0  0  0  0  0  0
   -1.7760  -11.0600   -2.1520 O   0  0  0  0  0  0  0  0  0  0  0  0
    0.0440  -13.2540   -0.8360 O   0  0  0  0  0  0  0  0  0  0  0  0
    3.5340   -7.0550   -0.3380 O   0  0  0  0  0  0  0  0  0  0  0  0
    5.6000   -8.7180   -2.9450 Cl  0  0  0  0  0  0  0  0  0  0  0  0
    9.4570   -9.7890    0.6390 Cl  0  0  0  0  0  0  0  0  0  0  0  0
  1  2  1  0  0  0  0
  1  3  1  0  0  0  0
  1  9  2  0  0  0  0
  3  4  1  0  0  0  0
  3  5  2  0  0  0  0
  5  6  1  0  0  0  0
  5  7  1  0  0  0  0
  7  8  2  0  0  0  0
  7 11  1  0  0  0  0
  8  9  1  0  0  0  0
  8 15  1  0  0  0  0
  9 10  1  0  0  0  0
 11 12  1  0  0  0  0
 11 13  1  0  0  0  0
 13 14  1  0  0  0  0
 13 15  2  0  0  0  0
 15 16  1  0  0  0  0
 16 17  1  0  0  0  0
 16 42  2  0  0  0  0
 17 18  1  0  0  0  0
 17 43  2  0  0  0  0
 18 19  1  0  0  0  0
 18 29  1  0  0  0  0
 19 20  1  0  0  0  0
 19 21  1  0  0  0  0
 19 22  1  0  0  0  0
 22 23  1  0  0  0  0
 22 24  1  0  0  0  0
 22 25  1  0  0  0  0
 25 26  1  0  0  0  0
 25 32  1  0  0  0  0
 26 27  1  0  0  0  0
 26 28  1  0  0  0  0
 26 29  1  0  0  0  0
 29 30  1  0  0  0  0
 29 31  1  0  0  0  0
 32 33  1  0  0  0  0
 32 44  2  0  0  0  0
 33 34  1  0  0  0  0
 33 40  2  0  0  0  0
 34 35  2  0  0  0  0
 34 45  1  0  0  0  0
 35 36  1  0  0  0  0
 35 37  1  0  0  0  0
 37 38  2  0  0  0  0
 37 46  1  0  0  0  0
 38 39  1  0  0  0  0
 38 40  1  0  0  0  0
 40 41  1  0  0  0  0
M  END
>  <Activity>
4.4317

>  <AM1_dipole>
5.3848

>  <AM1_E>
-121072

>  <AM1_Eele>
-877533

>  <AM1_HF>
-9.44147

>  <AM1_HOMO>
-8.91451

>  <AM1_IP>
8.91451

>  <AM1_LUMO>
-0.59979

>  <diameter>
16

>  <petitjean>
0.5

>  <petitjeanSC>
1

>  <radius>
8

>  <VDistEq>
3.72918

>  <VDistMa>
9.39101

>  <weinerPath>
2467

>  <weinerPol>
49

>  <BCUT_PEOE_0>
-2.71161

>  <BCUT_PEOE_1>
-0.639558

>  <BCUT_PEOE_2>
0.655383

>  <BCUT_PEOE_3>
2.65061

>  <BCUT_SLOGP_0>
-2.85992

>  <BCUT_SLOGP_1>
-0.441601

>  <BCUT_SLOGP_2>
0.799677

>  <BCUT_SLOGP_3>
2.50546

>  <BCUT_SMR_0>
-2.43196

>  <BCUT_SMR_1>
-0.41326

>  <BCUT_SMR_2>
0.853288

>  <BCUT_SMR_3>
2.9205

>  <GCUT_PEOE_0>
-0.860602

>  <GCUT_PEOE_1>
-0.403781

>  <GCUT_PEOE_2>
0.0620801

>  <GCUT_PEOE_3>
2.65083

>  <GCUT_SLOGP_0>
-0.976482

>  <GCUT_SLOGP_1>
-0.335808

>  <GCUT_SLOGP_2>
0.220007

>  <GCUT_SLOGP_3>
2.6436

>  <GCUT_SMR_0>
-0.508838

>  <GCUT_SMR_1>
-0.182339

>  <GCUT_SMR_2>
0.287563

>  <GCUT_SMR_3>
2.92649

>  <a_aro>
15

>  <a_count>
46

>  <a_IC>
80.8485

>  <a_ICM>
1.75758

>  <a_nH>
17

>  <b_1rotN>
5

>  <b_1rotR>
0.15625

>  <b_ar>
16

>  <b_count>
49

>  <b_double>
3

>  <b_rotN>
5

>  <b_rotR>
0.15625

>  <b_single>
30

>  <b_triple>
0

>  <chi0v>
16.8342

>  <chi0v_C>
11.9472

>  <chi1v>
9.85112

>  <chi1v_C>
5.85406

>  <chiral>
0

>  <chiral_u>
0

>  <nmol>
1

>  <reactive>
0

>  <rings>
4

>  <Weight>
430.291

>  <a_heavy>
29

>  <a_nB>
0

>  <a_nBr>
0

>  <a_nC>
21

>  <a_nCl>
2

>  <a_nF>
0

>  <a_nI>
0

>  <a_nN>
3

>  <a_nO>
3

>  <a_nP>
0

>  <a_nS>
0

>  <b_heavy>
32

>  <chi0>
20.5432

>  <chi0_C>
13.6814

>  <chi1>
13.9524

>  <chi1_C>
7.85774

>  <FCharge>
0

>  <VAdjEq>
0.388286

>  <VAdjMa>
6

>  <zagreb>
156

>  <balabanJ>
1.27696

>  <PEOE_PC+>
2.32994

>  <PEOE_PC->
-2.32994

>  <PEOE_RPC+>
0.126655

>  <PEOE_RPC->
0.154487

>  <PEOE_VSA+0>
82.9431

>  <PEOE_VSA+1>
77.183

>  <PEOE_VSA+2>
0

>  <PEOE_VSA+3>
8.61901

>  <PEOE_VSA+4>
0

>  <PEOE_VSA+5>
34.3576

>  <PEOE_VSA+6>
0

>  <PEOE_VSA-0>
49.0196

>  <PEOE_VSA-1>
95.9286

>  <PEOE_VSA-2>
0

>  <PEOE_VSA-3>
0

>  <PEOE_VSA-4>
0

>  <PEOE_VSA-5>
40.7008

>  <PEOE_VSA-6>
0.136891

>  <PEOE_VSA_FHYD>
0.806641

>  <PEOE_VSA_FNEG>
0.477736

>  <PEOE_VSA_FPNEG>
0.105011

>  <PEOE_VSA_FPOL>
0.193359

>  <PEOE_VSA_FPOS>
0.522264

>  <PEOE_VSA_FPPOS>
0.0883482

>  <PEOE_VSA_HYD>
313.693

>  <PEOE_VSA_NEG>
185.786

>  <PEOE_VSA_PNEG>
40.8377

>  <PEOE_VSA_POL>
75.1952

>  <PEOE_VSA_POS>
203.103

>  <PEOE_VSA_PPOS>
34.3576

>  <PC+>
4.973

>  <PC->
-4.974

>  <Q_PC+>
4.973

>  <Q_PC->
-4.974

>  <Q_RPC+>
0.131912

>  <Q_RPC->
0.13269

>  <Q_VSA_FHYD>
0.606076

>  <Q_VSA_FNEG>
0.543351

>  <Q_VSA_FPNEG>
0.14772

>  <Q_VSA_FPOL>
0.393924

>  <Q_VSA_FPOS>
0.456649

>  <Q_VSA_FPPOS>
0.246204

>  <Q_VSA_HYD>
235.696

>  <Q_VSA_NEG>
211.303

>  <Q_VSA_PNEG>
57.4467

>  <Q_VSA_POL>
153.193

>  <Q_VSA_POS>
177.586

>  <Q_VSA_PPOS>
95.7459

>  <RPC+>
0.131912

>  <RPC->
0.13269

>  <lip_acc>
6

>  <lip_don>
1

>  <lip_druglike>
1

>  <lip_violation>
0

>  <opr_brigid>
22

>  <opr_leadlike>
1

>  <opr_nring>
4

>  <opr_nrot>
5

>  <opr_violation>
0

>  <E>
89.1237

>  <E_ang>
8.17515

>  <E_ele>
25.8854

>  <E_nb>
71.5936

>  <E_oop>
0.0249057

>  <E_sol>
-21.2539

>  <E_stb>
0.345526

>  <E_str>
5.86508

>  <E_strain>
0.00467909

>  <E_tor>
3.11953

>  <E_vdw>
45.7081

>  <E_rele>
0

>  <E_rnb>
0

>  <E_rsol>
0

>  <E_rvdw>
0

>  <Kier1>
22.2031

>  <Kier2>
9.6465

>  <Kier3>
4.76896

>  <KierA1>
17.1856

>  <KierA2>
7.3937

>  <KierA3>
3.62887

>  <KierFlex>
4.38155

>  <logS>
-5.49817

>  <MNDO_dipole>
6.01802

>  <MNDO_E>
-120391

>  <MNDO_Eele>
-864804

>  <MNDO_HF>
-19.6612

>  <MNDO_HOMO>
-8.86511

>  <MNDO_IP>
8.86511

>  <MNDO_LUMO>
-0.97817

>  <apol>
58.3615

>  <bpol>
26.9185

>  <mr>
11.2547

>  <dipole>
1.43249

>  <dipoleX>
-0.0258025

>  <dipoleY>
-0.42214

>  <dipoleZ>
1.36863

>  <pmi>
11549.5

>  <pmiX>
9950.13

>  <pmiY>
950.748

>  <pmiZ>
648.597

>  <rgyr>
5.18084

>  <a_acc>
3

>  <a_acid>
0

>  <a_base>
0

>  <a_don>
1

>  <a_hyd>
20

>  <vsa_acc>
40.7008

>  <vsa_acid>
0

>  <vsa_base>
0

>  <vsa_don>
5.68258

>  <vsa_hyd>
293.686

>  <vsa_other>
34.3576

>  <vsa_pol>
46.3833

>  <PM3_dipole>
5.24762

>  <PM3_E>
-109545

>  <PM3_Eele>
-864977

>  <PM3_HF>
-45.5488

>  <PM3_HOMO>
-8.84156

>  <PM3_IP>
8.84156

>  <PM3_LUMO>
-0.58904

>  <SlogP>
3.642

>  <SlogP_VSA0>
0

>  <SlogP_VSA1>
22.4538

>  <SlogP_VSA2>
40.6477

>  <SlogP_VSA3>
73.7583

>  <SlogP_VSA4>
54.0956

>  <SlogP_VSA5>
0

>  <SlogP_VSA6>
7.00121

>  <SlogP_VSA7>
145.434

>  <SlogP_VSA8>
0

>  <SlogP_VSA9>
78.2973

>  <SMR>
11.1575

>  <SMR_VSA0>
71.5866

>  <SMR_VSA1>
6.24863

>  <SMR_VSA2>
16.7855

>  <SMR_VSA3>
13.3724

>  <SMR_VSA4>
4.7171

>  <SMR_VSA5>
140.717

>  <SMR_VSA6>
89.9635

>  <SMR_VSA7>
78.2973

>  <ASA>
661.574

>  <ASA+>
217.66

>  <ASA->
341.336

>  <ASA_H>
509.963

>  <ASA_P>
151.612

>  <CASA+>
1082.43

>  <CASA->
1697.81

>  <DASA>
123.676

>  <DCASA>
615.381

>  <FASA+>
0.329004

>  <FASA->
0.515945

>  <FASA_H>
0.770832

>  <FASA_P>
0.229168

>  <FCASA+>
1.63613

>  <FCASA->
2.56631

>  <VSA>
411.951

>  <TPSA>
73.48

>  <density>
0.831394

>  <vdw_area>
388.889

>  <vdw_vol>
517.554

>  <vsurf_A>
1.3765

>  <vsurf_CP>
0.153423

>  <vsurf_CW1>
2.64601

>  <vsurf_CW2>
2.09225

>  <vsurf_CW3>
1.20076

>  <vsurf_CW4>
0.510103

>  <vsurf_CW5>
0.196176

>  <vsurf_CW6>
0.0615772

>  <vsurf_CW7>
0.00591708

>  <vsurf_CW8>
0

>  <vsurf_D1>
1014.63

>  <vsurf_D2>
594.5

>  <vsurf_D3>
439.125

>  <vsurf_D4>
375.5

>  <vsurf_D5>
325.25

>  <vsurf_D6>
273.25

>  <vsurf_D7>
165.375

>  <vsurf_D8>
87.375

>  <vsurf_DD12>
0.5

>  <vsurf_DD13>
0.5

>  <vsurf_DD23>
1

>  <vsurf_DW12>
0.707107

>  <vsurf_DW13>
0.707107

>  <vsurf_DW23>
0.707107

>  <vsurf_EDmin1>
-2.65776

>  <vsurf_EDmin2>
-2.61511

>  <vsurf_EDmin3>
-2.59316

>  <vsurf_EWmin1>
-5.60539

>  <vsurf_EWmin2>
-5.52078

>  <vsurf_EWmin3>
-5.41028

>  <vsurf_G>
1.36473

>  <vsurf_HB1>
313.5

>  <vsurf_HB2>
353.875

>  <vsurf_HB3>
293

>  <vsurf_HB4>
103.125

>  <vsurf_HB5>
31.5

>  <vsurf_HB6>
8.375

>  <vsurf_HB7>
1.25

>  <vsurf_HB8>
0

>  <vsurf_HL1>
0.0868204

>  <vsurf_HL2>
0.0262983

>  <vsurf_ID1>
0.375981

>  <vsurf_ID2>
0.409703

>  <vsurf_ID3>
0.426905

>  <vsurf_ID4>
0.441583

>  <vsurf_ID5>
0.491627

>  <vsurf_ID6>
0.662665

>  <vsurf_ID7>
1.05514

>  <vsurf_ID8>
0.809032

>  <vsurf_IW1>
0.47978

>  <vsurf_IW2>
0.851654

>  <vsurf_IW3>
1.38548

>  <vsurf_IW4>
1.41938

>  <vsurf_IW5>
1.02336

>  <vsurf_IW6>
1.32321

>  <vsurf_IW7>
2.6336

>  <vsurf_IW8>
0

>  <vsurf_R>
1.45514

>  <vsurf_S>
608.704

>  <vsurf_V>
885.75

>  <vsurf_W1>
1459.25

>  <vsurf_W2>
823.375

>  <vsurf_W3>
374

>  <vsurf_W4>
120.5

>  <vsurf_W5>
38.125

>  <vsurf_W6>
9.875

>  <vsurf_W7>
1.25

>  <vsurf_W8>
0

>  <vsurf_Wp1>
1145.75

>  <vsurf_Wp2>
469.5

>  <vsurf_Wp3>
81

>  <vsurf_Wp4>
17.375

>  <vsurf_Wp5>
6.625

>  <vsurf_Wp6>
1.5

>  <vsurf_Wp7>
0

>  <vsurf_Wp8>
0

>  <dens>
1.14249

>  <glob>
0.0528699

>  <std_dim1>
4.7239

>  <std_dim2>
1.42101

>  <std_dim3>
1.08619

>  <vol>
376.625

>  <logP(o/w)>
3.302

$$$$
D7.cdx
  MOE2008           3D

 46 49  0  0  0  0  0  0  0  0999 V2000
   -5.8320  -14.6220    0.7400 C   0  0  0  0  0  0  0  0  0  0  0  0
   -6.5880  -14.3450    1.4700 H   0  0  0  0  0  0  0  0  0  0  0  0
   -6.1920  -14.8170   -0.5910 C   0  0  0  0  0  0  0  0  0  0  0  0
   -7.2300  -14.6890   -0.8900 H   0  0  0  0  0  0  0  0  0  0  0  0
   -5.2400  -15.1750   -1.5500 C   0  0  0  0  0  0  0  0  0  0  0  0
   -5.5250  -15.3250   -2.5860 H   0  0  0  0  0  0  0  0  0  0  0  0
   -3.9160  -15.3330   -1.1240 C   0  0  0  0  0  0  0  0  0  0  0  0
   -3.5200  -15.1470    0.2020 C   0  0  0  0  0  0  0  0  0  0  0  0
   -4.5030  -14.7820    1.1480 C   0  0  0  0  0  0  0  0  0  0  0  0
   -4.2350  -14.6290    2.1910 H   0  0  0  0  0  0  0  0  0  0  0  0
   -2.7930  -15.6790   -1.8380 N   0  0  0  0  0  0  0  0  0  0  0  0
   -2.7820  -15.8740   -2.8290 H   0  0  0  0  0  0  0  0  0  0  0  0
   -1.7020  -15.7220   -1.0120 C   0  0  0  0  0  0  0  0  0  0  0  0
   -0.7310  -15.9870   -1.4130 H   0  0  0  0  0  0  0  0  0  0  0  0
   -2.1090  -15.3960    0.2690 C   0  0  0  0  0  0  0  0  0  0  0  0
   -1.2460  -15.3240    1.4420 C   0  0  0  0  0  0  0  0  0  0  0  0
    0.2200  -15.6960    1.3260 C   0  0  0  0  0  0  0  0  0  0  0  0
    1.1390  -14.6530    1.2440 N   0  0  0  0  0  0  0  0  0  0  0  0
    2.5720  -14.9550    1.1820 C   0  0  0  0  0  0  0  0  0  0  0  0
    3.0040  -14.6310    2.1360 H   0  0  0  0  0  0  0  0  0  0  0  0
    2.7420  -16.0320    1.0890 H   0  0  0  0  0  0  0  0  0  0  0  0
    3.2490  -14.2170    0.0210 C   0  0  0  0  0  0  0  0  0  0  0  0
    2.8690  -14.6010   -0.9330 H   0  0  0  0  0  0  0  0  0  0  0  0
    4.3250  -14.3970    0.0320 H   0  0  0  0  0  0  0  0  0  0  0  0
    2.9260  -12.7820    0.0500 N   0  0  0  0  0  0  0  0  0  0  0  0
    1.4900  -12.4860    0.0850 C   0  0  0  0  0  0  0  0  0  0  0  0
    1.3080  -11.4100    0.1720 H   0  0  0  0  0  0  0  0  0  0  0  0
    1.0730  -12.8180   -0.8730 H   0  0  0  0  0  0  0  0  0  0  0  0
    0.7980  -13.2220    1.2420 C   0  0  0  0  0  0  0  0  0  0  0  0
   -0.2810  -13.0640    1.1820 H   0  0  0  0  0  0  0  0  0  0  0  0
    1.1420  -12.8170    2.2020 H   0  0  0  0  0  0  0  0  0  0  0  0
    3.8330  -11.7290    0.0160 C   0  0  0  0  0  0  0  0  0  0  0  0
    5.2770  -12.0280    0.1160 C   0  0  0  0  0  0  0  0  0  0  0  0
    5.8100  -12.5160    1.3130 C   0  0  0  0  0  0  0  0  0  0  0  0
    5.1590  -12.7020    2.1640 H   0  0  0  0  0  0  0  0  0  0  0  0
    7.1840  -12.7530    1.4070 C   0  0  0  0  0  0  0  0  0  0  0  0
    8.0190  -12.4870    0.3120 C   0  0  0  0  0  0  0  0  0  0  0  0
    7.4760  -11.9780   -0.8740 C   0  0  0  0  0  0  0  0  0  0  0  0
    8.1180  -11.7570   -1.7240 H   0  0  0  0  0  0  0  0  0  0  0  0
    6.1040  -11.7410   -0.9720 C   0  0  0  0  0  0  0  0  0  0  0  0
    5.6870  -11.3310   -1.8890 H   0  0  0  0  0  0  0  0  0  0  0  0
   -1.6390  -14.9610    2.5480 O   0  0  0  0  0  0  0  0  0  0  0  0
    0.4990  -16.8900    1.3080 O   0  0  0  0  0  0  0  0  0  0  0  0
    3.5220  -10.5470   -0.0870 O   0  0  0  0  0  0  0  0  0  0  0  0
    7.7900  -13.3730    2.9010 Cl  0  0  0  0  0  0  0  0  0  0  0  0
    9.7250  -12.7550    0.3660 Cl  0  0  0  0  0  0  0  0  0  0  0  0
  1  2  1  0  0  0  0
  1  3  1  0  0  0  0
  1  9  2  0  0  0  0
  3  4  1  0  0  0  0
  3  5  2  0  0  0  0
  5  6  1  0  0  0  0
  5  7  1  0  0  0  0
  7  8  2  0  0  0  0
  7 11  1  0  0  0  0
  8  9  1  0  0  0  0
  8 15  1  0  0  0  0
  9 10  1  0  0  0  0
 11 12  1  0  0  0  0
 11 13  1  0  0  0  0
 13 14  1  0  0  0  0
 13 15  2  0  0  0  0
 15 16  1  0  0  0  0
 16 17  1  0  0  0  0
 16 42  2  0  0  0  0
 17 18  1  0  0  0  0
 17 43  2  0  0  0  0
 18 19  1  0  0  0  0
 18 29  1  0  0  0  0
 19 20  1  0  0  0  0
 19 21  1  0  0  0  0
 19 22  1  0  0  0  0
 22 23  1  0  0  0  0
 22 24  1  0  0  0  0
 22 25  1  0  0  0  0
 25 26  1  0  0  0  0
 25 32  1  0  0  0  0
 26 27  1  0  0  0  0
 26 28  1  0  0  0  0
 26 29  1  0  0  0  0
 29 30  1  0  0  0  0
 29 31  1  0  0  0  0
 32 33  1  0  0  0  0
 32 44  2  0  0  0  0
 33 34  1  0  0  0  0
 33 40  2  0  0  0  0
 34 35  1  0  0  0  0
 34 36  2  0  0  0  0
 36 37  1  0  0  0  0
 36 45  1  0  0  0  0
 37 38  2  0  0  0  0
 37 46  1  0  0  0  0
 38 39  1  0  0  0  0
 38 40  1  0  0  0  0
 40 41  1  0  0  0  0
M  END
>  <Activity>
4.8386

>  <AM1_dipole>
5.85433

>  <AM1_E>
-121073

>  <AM1_Eele>
-871365

>  <AM1_HF>
-9.96345

>  <AM1_HOMO>
-8.90926

>  <AM1_IP>
8.90926

>  <AM1_LUMO>
-0.68348

>  <diameter>
16

>  <petitjean>
0.5

>  <petitjeanSC>
1

>  <radius>
8

>  <VDistEq>
3.74402

>  <VDistMa>
9.38876

>  <weinerPath>
2487

>  <weinerPol>
49

>  <BCUT_PEOE_0>
-2.71181

>  <BCUT_PEOE_1>
-0.639567

>  <BCUT_PEOE_2>
0.655384

>  <BCUT_PEOE_3>
2.65033

>  <BCUT_SLOGP_0>
-2.85999

>  <BCUT_SLOGP_1>
-0.469379

>  <BCUT_SLOGP_2>
0.800342

>  <BCUT_SLOGP_3>
2.50469

>  <BCUT_SMR_0>
-2.43201

>  <BCUT_SMR_1>
-0.433225

>  <BCUT_SMR_2>
0.853646

>  <BCUT_SMR_3>
2.92033

>  <GCUT_PEOE_0>
-0.860602

>  <GCUT_PEOE_1>
-0.405369

>  <GCUT_PEOE_2>
0.0692696

>  <GCUT_PEOE_3>
2.65024

>  <GCUT_SLOGP_0>
-0.976483

>  <GCUT_SLOGP_1>
-0.335822

>  <GCUT_SLOGP_2>
0.232207

>  <GCUT_SLOGP_3>
2.64167

>  <GCUT_SMR_0>
-0.50888

>  <GCUT_SMR_1>
-0.182341

>  <GCUT_SMR_2>
0.273303

>  <GCUT_SMR_3>
2.92537

>  <a_aro>
15

>  <a_count>
46

>  <a_IC>
80.8485

>  <a_ICM>
1.75758

>  <a_nH>
17

>  <b_1rotN>
5

>  <b_1rotR>
0.15625

>  <b_ar>
16

>  <b_count>
49

>  <b_double>
3

>  <b_rotN>
5

>  <b_rotR>
0.15625

>  <b_single>
30

>  <b_triple>
0

>  <chi0v>
16.8342

>  <chi0v_C>
11.9472

>  <chi1v>
9.85112

>  <chi1v_C>
5.85406

>  <chiral>
0

>  <chiral_u>
0

>  <nmol>
1

>  <reactive>
0

>  <rings>
4

>  <Weight>
430.291

>  <a_heavy>
29

>  <a_nB>
0

>  <a_nBr>
0

>  <a_nC>
21

>  <a_nCl>
2

>  <a_nF>
0

>  <a_nI>
0

>  <a_nN>
3

>  <a_nO>
3

>  <a_nP>
0

>  <a_nS>
0

>  <b_heavy>
32

>  <chi0>
20.5432

>  <chi0_C>
13.6814

>  <chi1>
13.9524

>  <chi1_C>
7.85774

>  <FCharge>
0

>  <VAdjEq>
0.388286

>  <VAdjMa>
6

>  <zagreb>
156

>  <balabanJ>
1.2669

>  <PEOE_PC+>
2.33322

>  <PEOE_PC->
-2.33322

>  <PEOE_RPC+>
0.126477

>  <PEOE_RPC->
0.15427

>  <PEOE_VSA+0>
80.6318

>  <PEOE_VSA+1>
79.4942

>  <PEOE_VSA+2>
0

>  <PEOE_VSA+3>
8.61901

>  <PEOE_VSA+4>
0

>  <PEOE_VSA+5>
34.3576

>  <PEOE_VSA+6>
0

>  <PEOE_VSA-0>
49.0196

>  <PEOE_VSA-1>
95.9286

>  <PEOE_VSA-2>
0

>  <PEOE_VSA-3>
0

>  <PEOE_VSA-4>
0

>  <PEOE_VSA-5>
40.7008

>  <PEOE_VSA-6>
0.136891

>  <PEOE_VSA_FHYD>
0.806641

>  <PEOE_VSA_FNEG>
0.477736

>  <PEOE_VSA_FPNEG>
0.105011

>  <PEOE_VSA_FPOL>
0.193359

>  <PEOE_VSA_FPOS>
0.522264

>  <PEOE_VSA_FPPOS>
0.0883482

>  <PEOE_VSA_HYD>
313.693

>  <PEOE_VSA_NEG>
185.786

>  <PEOE_VSA_PNEG>
40.8377

>  <PEOE_VSA_POL>
75.1952

>  <PEOE_VSA_POS>
203.103

>  <PEOE_VSA_PPOS>
34.3576

>  <PC+>
4.973

>  <PC->
-4.974

>  <Q_PC+>
4.973

>  <Q_PC->
-4.974

>  <Q_RPC+>
0.131912

>  <Q_RPC->
0.13269

>  <Q_VSA_FHYD>
0.606076

>  <Q_VSA_FNEG>
0.543351

>  <Q_VSA_FPNEG>
0.14772

>  <Q_VSA_FPOL>
0.393924

>  <Q_VSA_FPOS>
0.456649

>  <Q_VSA_FPPOS>
0.246204

>  <Q_VSA_HYD>
235.696

>  <Q_VSA_NEG>
211.303

>  <Q_VSA_PNEG>
57.4467

>  <Q_VSA_POL>
153.193

>  <Q_VSA_POS>
177.586

>  <Q_VSA_PPOS>
95.7459

>  <RPC+>
0.131912

>  <RPC->
0.13269

>  <lip_acc>
6

>  <lip_don>
1

>  <lip_druglike>
1

>  <lip_violation>
0

>  <opr_brigid>
22

>  <opr_leadlike>
1

>  <opr_nring>
4

>  <opr_nrot>
5

>  <opr_violation>
0

>  <E>
95.1328

>  <E_ang>
8.60414

>  <E_ele>
31.3014

>  <E_nb>
77.681

>  <E_oop>
0.0670234

>  <E_sol>
-26.2433

>  <E_stb>
0.41262

>  <E_str>
6.05571

>  <E_strain>
0.00438516

>  <E_tor>
2.31234

>  <E_vdw>
46.3796

>  <E_rele>
0

>  <E_rnb>
0

>  <E_rsol>
0

>  <E_rvdw>
0

>  <Kier1>
22.2031

>  <Kier2>
9.6465

>  <Kier3>
4.76896

>  <KierA1>
17.1856

>  <KierA2>
7.3937

>  <KierA3>
3.62887

>  <KierFlex>
4.38155

>  <logS>
-5.49817

>  <MNDO_dipole>
5.77735

>  <MNDO_E>
-120391

>  <MNDO_Eele>
-862333

>  <MNDO_HF>
-27.342

>  <MNDO_HOMO>
-8.87083

>  <MNDO_IP>
8.87083

>  <MNDO_LUMO>
-0.99433

>  <apol>
58.3615

>  <bpol>
26.9185

>  <mr>
11.2547

>  <dipole>
1.38207

>  <dipoleX>
-0.152777

>  <dipoleY>
-0.0734838

>  <dipoleZ>
-1.37163

>  <pmi>
11697.4

>  <pmiX>
9999.59

>  <pmiY>
1029.53

>  <pmiZ>
668.295

>  <rgyr>
5.21391

>  <a_acc>
3

>  <a_acid>
0

>  <a_base>
0

>  <a_don>
1

>  <a_hyd>
20

>  <vsa_acc>
40.7008

>  <vsa_acid>
0

>  <vsa_base>
0

>  <vsa_don>
5.68258

>  <vsa_hyd>
293.686

>  <vsa_other>
34.3576

>  <vsa_pol>
46.3833

>  <PM3_dipole>
5.31518

>  <PM3_E>
-109544

>  <PM3_Eele>
-865793

>  <PM3_HF>
-42.0907

>  <PM3_HOMO>
-8.85677

>  <PM3_IP>
8.85677

>  <PM3_LUMO>
-0.62771

>  <SlogP>
3.642

>  <SlogP_VSA0>
0

>  <SlogP_VSA1>
22.4538

>  <SlogP_VSA2>
40.6477

>  <SlogP_VSA3>
73.7583

>  <SlogP_VSA4>
54.0956

>  <SlogP_VSA5>
0

>  <SlogP_VSA6>
7.00121

>  <SlogP_VSA7>
145.434

>  <SlogP_VSA8>
0

>  <SlogP_VSA9>
78.2973

>  <SMR>
11.1575

>  <SMR_VSA0>
71.5866

>  <SMR_VSA1>
6.24863

>  <SMR_VSA2>
16.7855

>  <SMR_VSA3>
13.3724

>  <SMR_VSA4>
4.7171

>  <SMR_VSA5>
140.717

>  <SMR_VSA6>
89.9635

>  <SMR_VSA7>
78.2973

>  <ASA>
658.274

>  <ASA+>
217.903

>  <ASA->
340.99

>  <ASA_H>
499.46

>  <ASA_P>
158.815

>  <CASA+>
1083.63

>  <CASA->
1696.08

>  <DASA>
123.087

>  <DCASA>
612.453

>  <FASA+>
0.331021

>  <FASA->
0.518006

>  <FASA_H>
0.758741

>  <FASA_P>
0.241259

>  <FCASA+>
1.64617

>  <FCASA->
2.57656

>  <VSA>
408.61

>  <TPSA>
73.48

>  <density>
0.831394

>  <vdw_area>
388.889

>  <vdw_vol>
517.554

>  <vsurf_A>
1.82455

>  <vsurf_CP>
0.156539

>  <vsurf_CW1>
2.65191

>  <vsurf_CW2>
2.10994

>  <vsurf_CW3>
1.24335

>  <vsurf_CW4>
0.511568

>  <vsurf_CW5>
0.196568

>  <vsurf_CW6>
0.0559084

>  <vsurf_CW7>
0.00245749

>  <vsurf_CW8>
0

>  <vsurf_D1>
1015.5

>  <vsurf_D2>
602

>  <vsurf_D3>
446.375

>  <vsurf_D4>
379

>  <vsurf_D5>
329.625

>  <vsurf_D6>
274.125

>  <vsurf_D7>
163.375

>  <vsurf_D8>
91.875

>  <vsurf_DD12>
0.707107

>  <vsurf_DD13>
0.5

>  <vsurf_DD23>
1.11803

>  <vsurf_DW12>
0.5

>  <vsurf_DW13>
5.76628

>  <vsurf_DW23>
5.38516

>  <vsurf_EDmin1>
-2.74619

>  <vsurf_EDmin2>
-2.65214

>  <vsurf_EDmin3>
-2.64323

>  <vsurf_EWmin1>
-5.35924

>  <vsurf_EWmin2>
-5.3412

>  <vsurf_EWmin3>
-5.31061

>  <vsurf_G>
1.36512

>  <vsurf_HB1>
334.625

>  <vsurf_HB2>
367

>  <vsurf_HB3>
298.375

>  <vsurf_HB4>
103

>  <vsurf_HB5>
31.5

>  <vsurf_HB6>
7.125

>  <vsurf_HB7>
0.75

>  <vsurf_HB8>
0

>  <vsurf_HL1>
0.0848502

>  <vsurf_HL2>
0.0230871

>  <vsurf_ID1>
0.394665

>  <vsurf_ID2>
0.445505

>  <vsurf_ID3>
0.401841

>  <vsurf_ID4>
0.415003

>  <vsurf_ID5>
0.470339

>  <vsurf_ID6>
0.777997

>  <vsurf_ID7>
1.20863

>  <vsurf_ID8>
1.07966

>  <vsurf_IW1>
0.444716

>  <vsurf_IW2>
0.834849

>  <vsurf_IW3>
1.43884

>  <vsurf_IW4>
1.70673

>  <vsurf_IW5>
1.4827

>  <vsurf_IW6>
1.78668

>  <vsurf_IW7>
3.1447

>  <vsurf_IW8>
0

>  <vsurf_R>
1.45419

>  <vsurf_S>
608.416

>  <vsurf_V>
884.75

>  <vsurf_W1>
1476.25

>  <vsurf_W2>
833

>  <vsurf_W3>
386.5

>  <vsurf_W4>
120

>  <vsurf_W5>
37.875

>  <vsurf_W6>
8.75

>  <vsurf_W7>
0.75

>  <vsurf_W8>
0

>  <vsurf_Wp1>
1141.63

>  <vsurf_Wp2>
466

>  <vsurf_Wp3>
88.125

>  <vsurf_Wp4>
17

>  <vsurf_Wp5>
6.375

>  <vsurf_Wp6>
1.625

>  <vsurf_Wp7>
0

>  <vsurf_Wp8>
0

>  <dens>
1.1463

>  <glob>
0.0614758

>  <std_dim1>
4.60948

>  <std_dim2>
1.38802

>  <std_dim3>
1.14289

>  <vol>
375.375

>  <logP(o/w)>
3.302

$$$$
D7.cdx
  MOE2008           3D

 46 49  0  0  0  0  0  0  0  0999 V2000
   -5.4480  -18.1410   -0.0810 C   0  0  0  0  0  0  0  0  0  0  0  0
   -6.1050  -17.4150   -0.5550 H   0  0  0  0  0  0  0  0  0  0  0  0
   -5.9490  -18.9880    0.9040 C   0  0  0  0  0  0  0  0  0  0  0  0
   -6.9960  -18.9170    1.1910 H   0  0  0  0  0  0  0  0  0  0  0  0
   -5.1290  -19.9310    1.5300 C   0  0  0  0  0  0  0  0  0  0  0  0
   -5.5260  -20.5900    2.2960 H   0  0  0  0  0  0  0  0  0  0  0  0
   -3.7880  -19.9910    1.1320 C   0  0  0  0  0  0  0  0  0  0  0  0
   -3.2520  -19.1570    0.1470 C   0  0  0  0  0  0  0  0  0  0  0  0
   -4.1050  -18.2140   -0.4670 C   0  0  0  0  0  0  0  0  0  0  0  0
   -3.7260  -17.5480   -1.2380 H   0  0  0  0  0  0  0  0  0  0  0  0
   -2.7720  -20.8070    1.5680 N   0  0  0  0  0  0  0  0  0  0  0  0
   -2.8730  -21.5180    2.2800 H   0  0  0  0  0  0  0  0  0  0  0  0
   -1.6130  -20.5190    0.8990 C   0  0  0  0  0  0  0  0  0  0  0  0
   -0.7090  -21.0750    1.1170 H   0  0  0  0  0  0  0  0  0  0  0  0
   -1.8680  -19.4990    0.0000 C   0  0  0  0  0  0  0  0  0  0  0  0
   -0.8950  -18.9030   -0.9070 C   0  0  0  0  0  0  0  0  0  0  0  0
    0.5400  -19.3920   -0.9070 C   0  0  0  0  0  0  0  0  0  0  0  0
    1.4820  -18.5940   -0.2640 N   0  0  0  0  0  0  0  0  0  0  0  0
    2.8870  -19.0000   -0.2440 C   0  0  0  0  0  0  0  0  0  0  0  0
    3.1350  -19.2330    0.7980 H   0  0  0  0  0  0  0  0  0  0  0  0
    3.0440  -19.9090   -0.8340 H   0  0  0  0  0  0  0  0  0  0  0  0
    3.8010  -17.8780   -0.7610 C   0  0  0  0  0  0  0  0  0  0  0  0
    3.6360  -17.7220   -1.8330 H   0  0  0  0  0  0  0  0  0  0  0  0
    4.8410  -18.1760   -0.6160 H   0  0  0  0  0  0  0  0  0  0  0  0
    3.5060  -16.5970   -0.0960 N   0  0  0  0  0  0  0  0  0  0  0  0
    2.0910  -16.2060   -0.1090 C   0  0  0  0  0  0  0  0  0  0  0  0
    1.9260  -15.2910    0.4690 H   0  0  0  0  0  0  0  0  0  0  0  0
    1.8340  -15.9890   -1.1530 H   0  0  0  0  0  0  0  0  0  0  0  0
    1.1960  -17.3290    0.4270 C   0  0  0  0  0  0  0  0  0  0  0  0
    0.1460  -17.0440    0.3390 H   0  0  0  0  0  0  0  0  0  0  0  0
    1.4020  -17.4980    1.4910 H   0  0  0  0  0  0  0  0  0  0  0  0
    4.4320  -15.7560    0.5120 C   0  0  0  0  0  0  0  0  0  0  0  0
    5.8700  -16.0600    0.3890 C   0  0  0  0  0  0  0  0  0  0  0  0
    6.4980  -16.0170   -0.8550 C   0  0  0  0  0  0  0  0  0  0  0  0
    7.8660  -16.2630   -0.9480 C   0  0  0  0  0  0  0  0  0  0  0  0
    8.6090  -16.5370    0.2030 C   0  0  0  0  0  0  0  0  0  0  0  0
    9.6780  -16.7270    0.1370 H   0  0  0  0  0  0  0  0  0  0  0  0
    7.9810  -16.5580    1.4510 C   0  0  0  0  0  0  0  0  0  0  0  0
    8.5630  -16.7580    2.3480 H   0  0  0  0  0  0  0  0  0  0  0  0
    6.6110  -16.3130    1.5480 C   0  0  0  0  0  0  0  0  0  0  0  0
    6.1240  -16.3150    2.5210 H   0  0  0  0  0  0  0  0  0  0  0  0
   -1.1660  -17.9920   -1.6860 O   0  0  0  0  0  0  0  0  0  0  0  0
    0.7720  -20.4570   -1.4680 O   0  0  0  0  0  0  0  0  0  0  0  0
    4.1390  -14.7640    1.1730 O   0  0  0  0  0  0  0  0  0  0  0  0
    5.7870  -15.7390   -1.9590 F   0  0  0  0  0  0  0  0  0  0  0  0
    8.6560  -16.2300   -2.4770 Cl  0  0  0  0  0  0  0  0  0  0  0  0
  1  2  1  0  0  0  0
  1  3  1  0  0  0  0
  1  9  2  0  0  0  0
  3  4  1  0  0  0  0
  3  5  2  0  0  0  0
  5  6  1  0  0  0  0
  5  7  1  0  0  0  0
  7  8  2  0  0  0  0
  7 11  1  0  0  0  0
  8  9  1  0  0  0  0
  8 15  1  0  0  0  0
  9 10  1  0  0  0  0
 11 12  1  0  0  0  0
 11 13  1  0  0  0  0
 13 14  1  0  0  0  0
 13 15  2  0  0  0  0
 15 16  1  0  0  0  0
 16 17  1  0  0  0  0
 16 42  2  0  0  0  0
 17 18  1  0  0  0  0
 17 43  2  0  0  0  0
 18 19  1  0  0  0  0
 18 29  1  0  0  0  0
 19 20  1  0  0  0  0
 19 21  1  0  0  0  0
 19 22  1  0  0  0  0
 22 23  1  0  0  0  0
 22 24  1  0  0  0  0
 22 25  1  0  0  0  0
 25 26  1  0  0  0  0
 25 32  1  0  0  0  0
 26 27  1  0  0  0  0
 26 28  1  0  0  0  0
 26 29  1  0  0  0  0
 29 30  1  0  0  0  0
 29 31  1  0  0  0  0
 32 33  1  0  0  0  0
 32 44  2  0  0  0  0
 33 34  1  0  0  0  0
 33 40  2  0  0  0  0
 34 35  2  0  0  0  0
 34 45  1  0  0  0  0
 35 36  1  0  0  0  0
 35 46  1  0  0  0  0
 36 37  1  0  0  0  0
 36 38  2  0  0  0  0
 38 39  1  0  0  0  0
 38 40  1  0  0  0  0
 40 41  1  0  0  0  0
M  END
>  <Activity>
5.4559

>  <AM1_dipole>
6.52901

>  <AM1_E>
-123637

>  <AM1_Eele>
-886556

>  <AM1_HF>
-43.4826

>  <AM1_HOMO>
-8.88892

>  <AM1_IP>
8.88892

>  <AM1_LUMO>
-0.57945

>  <diameter>
15

>  <petitjean>
0.466667

>  <petitjeanSC>
0.875

>  <radius>
8

>  <VDistEq>
3.70032

>  <VDistMa>
9.394

>  <weinerPath>
2445

>  <weinerPol>
50

>  <BCUT_PEOE_0>
-2.71138

>  <BCUT_PEOE_1>
-0.639476

>  <BCUT_PEOE_2>
0.65542

>  <BCUT_PEOE_3>
2.65102

>  <BCUT_SLOGP_0>
-2.86008

>  <BCUT_SLOGP_1>
-0.480666

>  <BCUT_SLOGP_2>
0.72192

>  <BCUT_SLOGP_3>
2.50348

>  <BCUT_SMR_0>
-2.43202

>  <BCUT_SMR_1>
-0.433229

>  <BCUT_SMR_2>
0.82628

>  <BCUT_SMR_3>
2.92027

>  <GCUT_PEOE_0>
-0.860602

>  <GCUT_PEOE_1>
-0.43951

>  <GCUT_PEOE_2>
0.0655624

>  <GCUT_PEOE_3>
2.65285

>  <GCUT_SLOGP_0>
-0.976485

>  <GCUT_SLOGP_1>
-0.335836

>  <GCUT_SLOGP_2>
0.167869

>  <GCUT_SLOGP_3>
2.63529

>  <GCUT_SMR_0>
-0.508896

>  <GCUT_SMR_1>
-0.200502

>  <GCUT_SMR_2>
0.241832

>  <GCUT_SMR_3>
2.92287

>  <a_aro>
15

>  <a_count>
46

>  <a_IC>
82.8485

>  <a_ICM>
1.80106

>  <a_nH>
17

>  <b_1rotN>
5

>  <b_1rotR>
0.15625

>  <b_ar>
16

>  <b_count>
49

>  <b_double>
3

>  <b_rotN>
5

>  <b_rotR>
0.15625

>  <b_single>
30

>  <b_triple>
0

>  <chi0v>
16.0783

>  <chi0v_C>
11.9472

>  <chi1v>
9.47914

>  <chi1v_C>
5.86004

>  <chiral>
0

>  <chiral_u>
0

>  <nmol>
1

>  <reactive>
0

>  <rings>
4

>  <Weight>
413.836

>  <a_heavy>
29

>  <a_nB>
0

>  <a_nBr>
0

>  <a_nC>
21

>  <a_nCl>
1

>  <a_nF>
1

>  <a_nI>
0

>  <a_nN>
3

>  <a_nO>
3

>  <a_nP>
0

>  <a_nS>
0

>  <b_heavy>
32

>  <chi0>
20.5432

>  <chi0_C>
13.6814

>  <chi1>
13.9692

>  <chi1_C>
7.87457

>  <FCharge>
0

>  <VAdjEq>
0.388286

>  <VAdjMa>
6

>  <zagreb>
156

>  <balabanJ>
1.28703

>  <PEOE_PC+>
2.48045

>  <PEOE_PC->
-2.48045

>  <PEOE_RPC+>
0.11897

>  <PEOE_RPC->
0.145113

>  <PEOE_VSA+0>
78.4233

>  <PEOE_VSA+1>
77.183

>  <PEOE_VSA+2>
0

>  <PEOE_VSA+3>
17.6399

>  <PEOE_VSA+4>
0

>  <PEOE_VSA+5>
34.3576

>  <PEOE_VSA+6>
0

>  <PEOE_VSA-0>
36.7647

>  <PEOE_VSA-1>
78.6016

>  <PEOE_VSA-2>
0

>  <PEOE_VSA-3>
0

>  <PEOE_VSA-4>
11.9086

>  <PEOE_VSA-5>
40.7008

>  <PEOE_VSA-6>
0.136891

>  <PEOE_VSA_FHYD>
0.768166

>  <PEOE_VSA_FNEG>
0.447445

>  <PEOE_VSA_FPNEG>
0.140389

>  <PEOE_VSA_FPOL>
0.231834

>  <PEOE_VSA_FPOS>
0.552555

>  <PEOE_VSA_FPPOS>
0.0914455

>  <PEOE_VSA_HYD>
288.612

>  <PEOE_VSA_NEG>
168.113

>  <PEOE_VSA_PNEG>
52.7463

>  <PEOE_VSA_POL>
87.1039

>  <PEOE_VSA_POS>
207.604

>  <PEOE_VSA_PPOS>
34.3576

>  <PC+>
4.986

>  <PC->
-4.987

>  <Q_PC+>
4.986

>  <Q_PC->
-4.987

>  <Q_RPC+>
0.131568

>  <Q_RPC->
0.132344

>  <Q_VSA_FHYD>
0.592265

>  <Q_VSA_FNEG>
0.515361

>  <Q_VSA_FPNEG>
0.152899

>  <Q_VSA_FPOL>
0.407735

>  <Q_VSA_FPOS>
0.484639

>  <Q_VSA_FPPOS>
0.254836

>  <Q_VSA_HYD>
222.524

>  <Q_VSA_NEG>
193.63

>  <Q_VSA_PNEG>
57.4467

>  <Q_VSA_POL>
153.193

>  <Q_VSA_POS>
182.087

>  <Q_VSA_PPOS>
95.7459

>  <RPC+>
0.131568

>  <RPC->
0.132344

>  <lip_acc>
6

>  <lip_don>
1

>  <lip_druglike>
1

>  <lip_violation>
0

>  <opr_brigid>
22

>  <opr_leadlike>
1

>  <opr_nring>
4

>  <opr_nrot>
5

>  <opr_violation>
0

>  <E>
90.1385

>  <E_ang>
8.33938

>  <E_ele>
28.2459

>  <E_nb>
73.9114

>  <E_oop>
0.0321398

>  <E_sol>
-19.6774

>  <E_stb>
0.301605

>  <E_str>
5.71026

>  <E_strain>
0.00506177

>  <E_tor>
1.84364

>  <E_vdw>
45.6655

>  <E_rele>
0

>  <E_rnb>
2.84217e-014

>  <E_rsol>
2.84217e-014

>  <E_rvdw>
0

>  <Kier1>
22.2031

>  <Kier2>
9.6465

>  <Kier3>
4.62109

>  <KierA1>
16.1853

>  <KierA2>
6.94647

>  <KierA3>
3.29772

>  <KierFlex>
3.87691

>  <logS>
-5.05886

>  <MNDO_dipole>
7.3857

>  <MNDO_E>
-123268

>  <MNDO_Eele>
-874847

>  <MNDO_HF>
-64.7151

>  <MNDO_HOMO>
-8.86279

>  <MNDO_IP>
8.86279

>  <MNDO_LUMO>
-0.87728

>  <apol>
56.7385

>  <bpol>
27.7015

>  <mr>
10.8585

>  <dipole>
1.72542

>  <dipoleX>
0.398288

>  <dipoleY>
-0.896247

>  <dipoleZ>
1.41957

>  <pmi>
10566

>  <pmiX>
8714.01

>  <pmiY>
1230.39

>  <pmiZ>
621.627

>  <rgyr>
5.05291

>  <a_acc>
3

>  <a_acid>
0

>  <a_base>
0

>  <a_don>
1

>  <a_hyd>
20

>  <vsa_acc>
40.7008

>  <vsa_acid>
0

>  <vsa_base>
0

>  <vsa_don>
5.68258

>  <vsa_hyd>
280.513

>  <vsa_other>
34.3576

>  <vsa_pol>
46.3833

>  <PM3_dipole>
6.57081

>  <PM3_E>
-112391

>  <PM3_Eele>
-871913

>  <PM3_HF>
-69.6886

>  <PM3_HOMO>
-8.84113

>  <PM3_IP>
8.84113

>  <PM3_LUMO>
-0.61745

>  <SlogP>
3.1277

>  <SlogP_VSA0>
0

>  <SlogP_VSA1>
22.4538

>  <SlogP_VSA2>
49.7688

>  <SlogP_VSA3>
73.7583

>  <SlogP_VSA4>
54.0956

>  <SlogP_VSA5>
0

>  <SlogP_VSA6>
3.50061

>  <SlogP_VSA7>
145.434

>  <SlogP_VSA8>
0

>  <SlogP_VSA9>
54.1088

>  <SMR>
10.6523

>  <SMR_VSA0>
71.5866

>  <SMR_VSA1>
21.2087

>  <SMR_VSA2>
25.9065

>  <SMR_VSA3>
9.87176

>  <SMR_VSA4>
4.7171

>  <SMR_VSA5>
140.717

>  <SMR_VSA6>
89.9635

>  <SMR_VSA7>
39.1486

>  <ASA>
646.206

>  <ASA+>
229.131

>  <ASA->
312.604

>  <ASA_H>
495.066

>  <ASA_P>
151.14

>  <CASA+>
1142.44

>  <CASA->
1558.96

>  <DASA>
83.4735

>  <DCASA>
416.512

>  <FASA+>
0.354578

>  <FASA->
0.483753

>  <FASA_H>
0.766112

>  <FASA_P>
0.233888

>  <FCASA+>
1.76793

>  <FCASA->
2.41248

>  <VSA>
399.766

>  <TPSA>
73.48

>  <density>
0.819899

>  <vdw_area>
375.716

>  <vdw_vol>
504.74

>  <vsurf_A>
1.24725

>  <vsurf_CP>
0.140118

>  <vsurf_CW1>
2.6501

>  <vsurf_CW2>
2.11837

>  <vsurf_CW3>
1.35583

>  <vsurf_CW4>
0.617327

>  <vsurf_CW5>
0.202596

>  <vsurf_CW6>
0.0593174

>  <vsurf_CW7>
0.00661211

>  <vsurf_CW8>
0

>  <vsurf_D1>
925.125

>  <vsurf_D2>
524.75

>  <vsurf_D3>
388.75

>  <vsurf_D4>
331.125

>  <vsurf_D5>
282.75

>  <vsurf_D6>
222.875

>  <vsurf_D7>
120

>  <vsurf_D8>
62.625

>  <vsurf_DD12>
0.5

>  <vsurf_DD13>
5.40833

>  <vsurf_DD23>
5.24404

>  <vsurf_DW12>
5.40833

>  <vsurf_DW13>
0.707107

>  <vsurf_DW23>
5.89491

>  <vsurf_EDmin1>
-2.64423

>  <vsurf_EDmin2>
-2.63154

>  <vsurf_EDmin3>
-2.62683

>  <vsurf_EWmin1>
-5.49009

>  <vsurf_EWmin2>
-5.41136

>  <vsurf_EWmin3>
-5.3673

>  <vsurf_G>
1.36888

>  <vsurf_HB1>
310

>  <vsurf_HB2>
377.375

>  <vsurf_HB3>
344.125

>  <vsurf_HB4>
117.5

>  <vsurf_HB5>
31.5

>  <vsurf_HB6>
8.5

>  <vsurf_HB7>
1.25

>  <vsurf_HB8>
0

>  <vsurf_HL1>
0.0980707

>  <vsurf_HL2>
0.0302001

>  <vsurf_ID1>
0.57802

>  <vsurf_ID2>
0.819604

>  <vsurf_ID3>
0.79925

>  <vsurf_ID4>
0.788614

>  <vsurf_ID5>
0.862962

>  <vsurf_ID6>
1.04633

>  <vsurf_ID7>
1.8116

>  <vsurf_ID8>
2.26652

>  <vsurf_IW1>
0.459225

>  <vsurf_IW2>
0.55063

>  <vsurf_IW3>
0.767907

>  <vsurf_IW4>
0.939422

>  <vsurf_IW5>
0.788881

>  <vsurf_IW6>
1.37585

>  <vsurf_IW7>
3.97581

>  <vsurf_IW8>
0

>  <vsurf_R>
1.43095

>  <vsurf_S>
594.013

>  <vsurf_V>
850

>  <vsurf_W1>
1424.88

>  <vsurf_W2>
834.125

>  <vsurf_W3>
422.75

>  <vsurf_W4>
134.25

>  <vsurf_W5>
38.125

>  <vsurf_W6>
10

>  <vsurf_W7>
1.25

>  <vsurf_W8>
0

>  <vsurf_Wp1>
1114.88

>  <vsurf_Wp2>
456.75

>  <vsurf_Wp3>
78.625

>  <vsurf_Wp4>
16.75

>  <vsurf_Wp5>
6.625

>  <vsurf_Wp6>
1.5

>  <vsurf_Wp7>
0

>  <vsurf_Wp8>
0

>  <dens>
1.14083

>  <glob>
0.058405

>  <std_dim1>
4.74568

>  <std_dim2>
1.35011

>  <std_dim3>
1.1469

>  <vol>
362.75

>  <logP(o/w)>
2.824

$$$$
D8.cdx
  MOE2008           3D

 45 48  0  0  0  0  0  0  0  0999 V2000
   -7.6040   17.1130    0.4990 C   0  0  0  0  0  0  0  0  0  0  0  0
   -8.3910   17.8070    0.2130 H   0  0  0  0  0  0  0  0  0  0  0  0
   -7.8620   16.1250    1.4460 C   0  0  0  0  0  0  0  0  0  0  0  0
   -8.8510   16.0570    1.8930 H   0  0  0  0  0  0  0  0  0  0  0  0
   -6.8710   15.2180    1.8300 C   0  0  0  0  0  0  0  0  0  0  0  0
   -7.0790   14.4490    2.5680 H   0  0  0  0  0  0  0  0  0  0  0  0
   -5.6120   15.3390    1.2300 C   0  0  0  0  0  0  0  0  0  0  0  0
   -5.3180   16.3160    0.2760 C   0  0  0  0  0  0  0  0  0  0  0  0
   -6.3400   17.2190   -0.0920 C   0  0  0  0  0  0  0  0  0  0  0  0
   -6.1500   17.9930   -0.8310 H   0  0  0  0  0  0  0  0  0  0  0  0
   -4.4700   14.5960    1.4130 N   0  0  0  0  0  0  0  0  0  0  0  0
   -4.3890   13.8150    2.0500 H   0  0  0  0  0  0  0  0  0  0  0  0
   -3.4650   15.0660    0.6110 C   0  0  0  0  0  0  0  0  0  0  0  0
   -2.4920   14.5910    0.6280 H   0  0  0  0  0  0  0  0  0  0  0  0
   -3.9510   16.1370   -0.1170 C   0  0  0  0  0  0  0  0  0  0  0  0
   -3.1920   16.9160   -1.0870 C   0  0  0  0  0  0  0  0  0  0  0  0
   -1.7560   16.5410   -1.3930 C   0  0  0  0  0  0  0  0  0  0  0  0
   -0.7610   17.2430   -0.7180 N   0  0  0  0  0  0  0  0  0  0  0  0
    0.6460   16.8710   -0.9240 C   0  0  0  0  0  0  0  0  0  0  0  0
    0.9830   16.3910    0.0020 H   0  0  0  0  0  0  0  0  0  0  0  0
    0.7430   16.1410   -1.7330 H   0  0  0  0  0  0  0  0  0  0  0  0
    1.5020   18.1040   -1.2260 C   0  0  0  0  0  0  0  0  0  0  0  0
    1.1810   18.5510   -2.1750 H   0  0  0  0  0  0  0  0  0  0  0  0
    2.5530   17.8420   -1.3510 H   0  0  0  0  0  0  0  0  0  0  0  0
    1.2920   19.1240   -0.1900 N   0  0  0  0  0  0  0  0  0  0  0  0
   -0.1000   19.5560   -0.0600 C   0  0  0  0  0  0  0  0  0  0  0  0
   -0.2130   20.3020    0.7320 H   0  0  0  0  0  0  0  0  0  0  0  0
   -0.3880   20.0230   -1.0090 H   0  0  0  0  0  0  0  0  0  0  0  0
   -0.9990   18.3440    0.2350 C   0  0  0  0  0  0  0  0  0  0  0  0
   -2.0450   18.6560    0.2400 H   0  0  0  0  0  0  0  0  0  0  0  0
   -0.7680   17.9440    1.2290 H   0  0  0  0  0  0  0  0  0  0  0  0
    2.2660   19.6640    0.6480 C   0  0  0  0  0  0  0  0  0  0  0  0
    3.5920   18.9890    0.7700 C   0  0  0  0  0  0  0  0  0  0  0  0
    3.5920   17.6300    0.7920 N   0  0  0  0  0  0  0  0  0  0  0  0
    4.7910   17.0320    0.9600 C   0  0  0  0  0  0  0  0  0  0  0  0
    4.7680   15.9460    0.9680 H   0  0  0  0  0  0  0  0  0  0  0  0
    5.9840   17.7200    1.1160 C   0  0  0  0  0  0  0  0  0  0  0  0
    6.9190   17.1860    1.2490 H   0  0  0  0  0  0  0  0  0  0  0  0
    5.9510   19.1110    1.1060 C   0  0  0  0  0  0  0  0  0  0  0  0
    6.8660   19.6820    1.2360 H   0  0  0  0  0  0  0  0  0  0  0  0
    4.7340   19.7650    0.9370 C   0  0  0  0  0  0  0  0  0  0  0  0
    4.6800   20.8480    0.9400 H   0  0  0  0  0  0  0  0  0  0  0  0
   -3.6480   17.8890   -1.6820 O   0  0  0  0  0  0  0  0  0  0  0  0
   -1.5700   15.6330   -2.1950 O   0  0  0  0  0  0  0  0  0  0  0  0
    2.0810   20.6710    1.3310 O   0  0  0  0  0  0  0  0  0  0  0  0
  1  2  1  0  0  0  0
  1  3  1  0  0  0  0
  1  9  2  0  0  0  0
  3  4  1  0  0  0  0
  3  5  2  0  0  0  0
  5  6  1  0  0  0  0
  5  7  1  0  0  0  0
  7  8  2  0  0  0  0
  7 11  1  0  0  0  0
  8  9  1  0  0  0  0
  8 15  1  0  0  0  0
  9 10  1  0  0  0  0
 11 12  1  0  0  0  0
 11 13  1  0  0  0  0
 13 14  1  0  0  0  0
 13 15  2  0  0  0  0
 15 16  1  0  0  0  0
 16 17  1  0  0  0  0
 16 43  2  0  0  0  0
 17 18  1  0  0  0  0
 17 44  2  0  0  0  0
 18 19  1  0  0  0  0
 18 29  1  0  0  0  0
 19 20  1  0  0  0  0
 19 21  1  0  0  0  0
 19 22  1  0  0  0  0
 22 23  1  0  0  0  0
 22 24  1  0  0  0  0
 22 25  1  0  0  0  0
 25 26  1  0  0  0  0
 25 32  1  0  0  0  0
 26 27  1  0  0  0  0
 26 28  1  0  0  0  0
 26 29  1  0  0  0  0
 29 30  1  0  0  0  0
 29 31  1  0  0  0  0
 32 33  1  0  0  0  0
 32 45  2  0  0  0  0
 33 34  1  0  0  0  0
 33 41  2  0  0  0  0
 34 35  2  0  0  0  0
 35 36  1  0  0  0  0
 35 37  1  0  0  0  0
 37 38  1  0  0  0  0
 37 39  2  0  0  0  0
 39 40  1  0  0  0  0
 39 41  1  0  0  0  0
 41 42  1  0  0  0  0
M  END
>  <Activity>
5.8096

>  <AM1_dipole>
4.28469

>  <AM1_E>
-105964

>  <AM1_Eele>
-778193

>  <AM1_HF>
13.6829

>  <AM1_HOMO>
-8.85242

>  <AM1_IP>
8.85242

>  <AM1_LUMO>
-0.44334

>  <diameter>
15

>  <petitjean>
0.466667

>  <petitjeanSC>
0.875

>  <radius>
8

>  <VDistEq>
3.64907

>  <VDistMa>
9.18451

>  <weinerPath>
2023

>  <weinerPol>
44

>  <BCUT_PEOE_0>
-2.7105

>  <BCUT_PEOE_1>
-0.569444

>  <BCUT_PEOE_2>
0.616567

>  <BCUT_PEOE_3>
2.65108

>  <BCUT_SLOGP_0>
-2.86011

>  <BCUT_SLOGP_1>
-0.489708

>  <BCUT_SLOGP_2>
0.697285

>  <BCUT_SLOGP_3>
2.50101

>  <BCUT_SMR_0>
-2.43183

>  <BCUT_SMR_1>
-0.413056

>  <BCUT_SMR_2>
0.760324

>  <BCUT_SMR_3>
2.91942

>  <GCUT_PEOE_0>
-0.860602

>  <GCUT_PEOE_1>
-0.423786

>  <GCUT_PEOE_2>
0.0742392

>  <GCUT_PEOE_3>
2.63327

>  <GCUT_SLOGP_0>
-0.976493

>  <GCUT_SLOGP_1>
-0.341051

>  <GCUT_SLOGP_2>
0.141177

>  <GCUT_SLOGP_3>
2.60503

>  <GCUT_SMR_0>
-0.508859

>  <GCUT_SMR_1>
-0.203507

>  <GCUT_SMR_2>
0.190833

>  <GCUT_SMR_3>
2.90281

>  <a_aro>
15

>  <a_count>
45

>  <a_IC>
72.8813

>  <a_ICM>
1.61958

>  <a_nH>
18

>  <b_1rotN>
5

>  <b_1rotR>
0.166667

>  <b_ar>
16

>  <b_count>
48

>  <b_double>
3

>  <b_rotN>
5

>  <b_rotR>
0.166667

>  <b_single>
29

>  <b_triple>
0

>  <chi0v>
14.591

>  <chi0v_C>
11.5246

>  <chi1v>
8.74968

>  <chi1v_C>
5.4047

>  <chiral>
0

>  <chiral_u>
0

>  <nmol>
1

>  <reactive>
0

>  <rings>
4

>  <Weight>
362.389

>  <a_heavy>
27

>  <a_nB>
0

>  <a_nBr>
0

>  <a_nC>
20

>  <a_nCl>
0

>  <a_nF>
0

>  <a_nI>
0

>  <a_nN>
4

>  <a_nO>
3

>  <a_nP>
0

>  <a_nS>
0

>  <b_heavy>
30

>  <chi0>
18.8028

>  <chi0_C>
13.2338

>  <chi1>
13.1479

>  <chi1_C>
7.29966

>  <FCharge>
0

>  <VAdjEq>
0.410248

>  <VAdjMa>
5.90689

>  <zagreb>
144

>  <balabanJ>
1.27297

>  <PEOE_PC+>
2.43021

>  <PEOE_PC->
-2.43021

>  <PEOE_RPC+>
0.12143

>  <PEOE_RPC->
0.148113

>  <PEOE_VSA+0>
95.1692

>  <PEOE_VSA+1>
74.7201

>  <PEOE_VSA+2>
6.69955

>  <PEOE_VSA+3>
8.61901

>  <PEOE_VSA+4>
0

>  <PEOE_VSA+5>
34.3576

>  <PEOE_VSA+6>
0

>  <PEOE_VSA-0>
36.7647

>  <PEOE_VSA-1>
49.0196

>  <PEOE_VSA-2>
0

>  <PEOE_VSA-3>
0

>  <PEOE_VSA-4>
0

>  <PEOE_VSA-5>
46.3833

>  <PEOE_VSA-6>
0.136891

>  <PEOE_VSA_FHYD>
0.770149

>  <PEOE_VSA_FNEG>
0.376004

>  <PEOE_VSA_FPNEG>
0.132209

>  <PEOE_VSA_FPOL>
0.229851

>  <PEOE_VSA_FPOS>
0.623996

>  <PEOE_VSA_FPPOS>
0.0976428

>  <PEOE_VSA_HYD>
270.992

>  <PEOE_VSA_NEG>
132.305

>  <PEOE_VSA_PNEG>
46.5202

>  <PEOE_VSA_POL>
80.8778

>  <PEOE_VSA_POS>
219.565

>  <PEOE_VSA_PPOS>
34.3576

>  <PC+>
5.239

>  <PC->
-5.24

>  <Q_PC+>
5.239

>  <Q_PC->
-5.24

>  <Q_RPC+>
0.125215

>  <Q_RPC->
0.125954

>  <Q_VSA_FHYD>
0.529444

>  <Q_VSA_FNEG>
0.448523

>  <Q_VSA_FPNEG>
0.179411

>  <Q_VSA_FPOL>
0.470556

>  <Q_VSA_FPOS>
0.551477

>  <Q_VSA_FPPOS>
0.291146

>  <Q_VSA_HYD>
186.295

>  <Q_VSA_NEG>
157.822

>  <Q_VSA_PNEG>
63.1293

>  <Q_VSA_POL>
165.575

>  <Q_VSA_POS>
194.048

>  <Q_VSA_PPOS>
102.445

>  <RPC+>
0.125215

>  <RPC->
0.125954

>  <lip_acc>
7

>  <lip_don>
1

>  <lip_druglike>
1

>  <lip_violation>
0

>  <opr_brigid>
22

>  <opr_leadlike>
1

>  <opr_nring>
4

>  <opr_nrot>
5

>  <opr_violation>
0

>  <E>
100.22

>  <E_ang>
8.47283

>  <E_ele>
39.9621

>  <E_nb>
86.0471

>  <E_oop>
0.0852166

>  <E_sol>
-21.1656

>  <E_stb>
0.652648

>  <E_str>
5.81933

>  <E_strain>
0.00338178

>  <E_tor>
-0.857474

>  <E_vdw>
46.0849

>  <E_rele>
0

>  <E_rnb>
0

>  <E_rsol>
0

>  <E_rvdw>
0

>  <Kier1>
20.28

>  <Kier2>
9.21202

>  <Kier3>
4.45184

>  <KierA1>
13.6224

>  <KierA2>
6.08444

>  <KierA3>
2.90364

>  <KierFlex>
3.0698

>  <logS>
-2.92437

>  <MNDO_dipole>
4.41378

>  <MNDO_E>
-106189

>  <MNDO_Eele>
-768145

>  <MNDO_HF>
-8.85014

>  <MNDO_HOMO>
-8.80304

>  <MNDO_IP>
8.80304

>  <MNDO_LUMO>
-0.52868

>  <apol>
54.0083

>  <bpol>
28.4917

>  <mr>
10.1051

>  <dipole>
1.41674

>  <dipoleX>
0.994186

>  <dipoleY>
-0.697524

>  <dipoleZ>
0.72952

>  <pmi>
7652.54

>  <pmiX>
6250.83

>  <pmiY>
962.942

>  <pmiZ>
438.771

>  <rgyr>
4.59532

>  <a_acc>
4

>  <a_acid>
0

>  <a_base>
0

>  <a_don>
1

>  <a_hyd>
17

>  <vsa_acc>
46.3833

>  <vsa_acid>
0

>  <vsa_base>
0

>  <vsa_don>
5.68258

>  <vsa_hyd>
250.273

>  <vsa_other>
34.3576

>  <vsa_pol>
52.0659

>  <PM3_dipole>
4.4584

>  <PM3_E>
-96296.3

>  <PM3_Eele>
-765759

>  <PM3_HF>
-26.9875

>  <PM3_HOMO>
-8.79133

>  <PM3_IP>
8.79133

>  <PM3_LUMO>
-0.51613

>  <SlogP>
1.7302

>  <SlogP_VSA0>
0

>  <SlogP_VSA1>
39.2393

>  <SlogP_VSA2>
40.6477

>  <SlogP_VSA3>
73.7583

>  <SlogP_VSA4>
53.6668

>  <SlogP_VSA5>
0

>  <SlogP_VSA6>
0

>  <SlogP_VSA7>
162.648

>  <SlogP_VSA8>
0

>  <SlogP_VSA9>
0

>  <SMR>
9.93497

>  <SMR_VSA0>
71.5866

>  <SMR_VSA1>
23.0342

>  <SMR_VSA2>
16.7855

>  <SMR_VSA3>
5.94232

>  <SMR_VSA4>
4.7171

>  <SMR_VSA5>
157.931

>  <SMR_VSA6>
89.9635

>  <SMR_VSA7>
0

>  <ASA>
612.081

>  <ASA+>
269.872

>  <ASA->
237.568

>  <ASA_H>
445.867

>  <ASA_P>
166.214

>  <CASA+>
1413.86

>  <CASA->
1244.86

>  <DASA>
32.3045

>  <DCASA>
169.006

>  <FASA+>
0.44091

>  <FASA->
0.388131

>  <FASA_H>
0.728445

>  <FASA_P>
0.271555

>  <FCASA+>
2.30993

>  <FCASA->
2.03381

>  <VSA>
372.434

>  <TPSA>
86.37

>  <density>
0.760417

>  <vdw_area>
351.87

>  <vdw_vol>
476.566

>  <vsurf_A>
1.81481

>  <vsurf_CP>
0.123542

>  <vsurf_CW1>
2.67834

>  <vsurf_CW2>
2.12449

>  <vsurf_CW3>
1.35697

>  <vsurf_CW4>
0.637715

>  <vsurf_CW5>
0.244401

>  <vsurf_CW6>
0.066029

>  <vsurf_CW7>
0.00362671

>  <vsurf_CW8>
0

>  <vsurf_D1>
861.25

>  <vsurf_D2>
499.375

>  <vsurf_D3>
368.75

>  <vsurf_D4>
312.375

>  <vsurf_D5>
268

>  <vsurf_D6>
212.125

>  <vsurf_D7>
119.25

>  <vsurf_D8>
63.625

>  <vsurf_DD12>
0.5

>  <vsurf_DD13>
1.11803

>  <vsurf_DD23>
0.707107

>  <vsurf_DW12>
0.5

>  <vsurf_DW13>
0.707107

>  <vsurf_DW23>
0.5

>  <vsurf_EDmin1>
-2.60819

>  <vsurf_EDmin2>
-2.60112

>  <vsurf_EDmin3>
-2.50661

>  <vsurf_EWmin1>
-5.45569

>  <vsurf_EWmin2>
-5.37542

>  <vsurf_EWmin3>
-5.31047

>  <vsurf_G>
1.33968

>  <vsurf_HB1>
288.625

>  <vsurf_HB2>
332.5

>  <vsurf_HB3>
318.875

>  <vsurf_HB4>
116.25

>  <vsurf_HB5>
35.125

>  <vsurf_HB6>
8.875

>  <vsurf_HB7>
0.625

>  <vsurf_HB8>
0

>  <vsurf_HL1>
0.113898

>  <vsurf_HL2>
0.0328131

>  <vsurf_ID1>
0.621564

>  <vsurf_ID2>
0.594531

>  <vsurf_ID3>
0.664188

>  <vsurf_ID4>
0.72133

>  <vsurf_ID5>
0.769182

>  <vsurf_ID6>
0.884746

>  <vsurf_ID7>
0.728043

>  <vsurf_ID8>
0.614851

>  <vsurf_IW1>
0.149617

>  <vsurf_IW2>
0.277183

>  <vsurf_IW3>
0.540442

>  <vsurf_IW4>
0.912501

>  <vsurf_IW5>
1.16391

>  <vsurf_IW6>
1.90477

>  <vsurf_IW7>
3.93701

>  <vsurf_IW8>
0

>  <vsurf_R>
1.42787

>  <vsurf_S>
554.409

>  <vsurf_V>
791.625

>  <vsurf_W1>
1344.25

>  <vsurf_W2>
790.375

>  <vsurf_W3>
398.125

>  <vsurf_W4>
133.625

>  <vsurf_W5>
42

>  <vsurf_W6>
10.25

>  <vsurf_W7>
0.625

>  <vsurf_W8>
0

>  <vsurf_Wp1>
1055.63

>  <vsurf_Wp2>
457.875

>  <vsurf_Wp3>
79.25

>  <vsurf_Wp4>
17.375

>  <vsurf_Wp5>
6.875

>  <vsurf_Wp6>
1.375

>  <vsurf_Wp7>
0

>  <vsurf_Wp8>
0

>  <dens>
1.06703

>  <glob>
0.0616946

>  <std_dim1>
4.54014

>  <std_dim2>
1.4854

>  <std_dim3>
1.1277

>  <vol>
339.625

>  <logP(o/w)>
0.812

$$$$
D8.cdx
  MOE2008           3D

 45 48  0  0  0  0  0  0  0  0999 V2000
   -7.4440   13.7050   -0.6350 C   0  0  0  0  0  0  0  0  0  0  0  0
   -8.1230   14.2790   -1.2610 H   0  0  0  0  0  0  0  0  0  0  0  0
   -7.9130   13.1110    0.5330 C   0  0  0  0  0  0  0  0  0  0  0  0
   -8.9580   13.2260    0.8110 H   0  0  0  0  0  0  0  0  0  0  0  0
   -7.0630   12.3660    1.3560 C   0  0  0  0  0  0  0  0  0  0  0  0
   -7.4360   11.9030    2.2640 H   0  0  0  0  0  0  0  0  0  0  0  0
   -5.7250   12.2410    0.9620 C   0  0  0  0  0  0  0  0  0  0  0  0
   -5.2210   12.8230   -0.2030 C   0  0  0  0  0  0  0  0  0  0  0  0
   -6.1030   13.5700   -1.0130 C   0  0  0  0  0  0  0  0  0  0  0  0
   -5.7490   14.0370   -1.9280 H   0  0  0  0  0  0  0  0  0  0  0  0
   -4.6850   11.5760    1.5660 N   0  0  0  0  0  0  0  0  0  0  0  0
   -4.7620   11.0570    2.4310 H   0  0  0  0  0  0  0  0  0  0  0  0
   -3.5400   11.7180    0.8290 C   0  0  0  0  0  0  0  0  0  0  0  0
   -2.6220   11.2500    1.1620 H   0  0  0  0  0  0  0  0  0  0  0  0
   -3.8300   12.4840   -0.2860 C   0  0  0  0  0  0  0  0  0  0  0  0
   -2.8820   12.8620   -1.3260 C   0  0  0  0  0  0  0  0  0  0  0  0
   -1.4440   12.3880   -1.2410 C   0  0  0  0  0  0  0  0  0  0  0  0
   -0.5150   13.2750   -0.7070 N   0  0  0  0  0  0  0  0  0  0  0  0
    0.8800   12.8580   -0.5560 C   0  0  0  0  0  0  0  0  0  0  0  0
    1.0700   12.7830    0.5220 H   0  0  0  0  0  0  0  0  0  0  0  0
    1.0440   11.8670   -0.9910 H   0  0  0  0  0  0  0  0  0  0  0  0
    1.8440   13.8720   -1.1860 C   0  0  0  0  0  0  0  0  0  0  0  0
    1.7360   13.8700   -2.2770 H   0  0  0  0  0  0  0  0  0  0  0  0
    2.8670   13.5790   -0.9440 H   0  0  0  0  0  0  0  0  0  0  0  0
    1.5460   15.2420   -0.7310 N   0  0  0  0  0  0  0  0  0  0  0  0
    0.1470   15.6510   -0.8960 C   0  0  0  0  0  0  0  0  0  0  0  0
   -0.0280   16.6480   -0.4810 H   0  0  0  0  0  0  0  0  0  0  0  0
   -0.0400   15.7050   -1.9750 H   0  0  0  0  0  0  0  0  0  0  0  0
   -0.8090   14.6410   -0.2490 C   0  0  0  0  0  0  0  0  0  0  0  0
   -1.8430   14.9250   -0.4580 H   0  0  0  0  0  0  0  0  0  0  0  0
   -0.6770   14.6430    0.8390 H   0  0  0  0  0  0  0  0  0  0  0  0
    2.4510   16.1350   -0.1650 C   0  0  0  0  0  0  0  0  0  0  0  0
    3.8840   15.7970   -0.1710 C   0  0  0  0  0  0  0  0  0  0  0  0
    4.5690   15.6260   -1.3650 C   0  0  0  0  0  0  0  0  0  0  0  0
    4.0720   15.7200   -2.3260 H   0  0  0  0  0  0  0  0  0  0  0  0
    5.8880   15.3340   -1.4310 N   0  0  0  0  0  0  0  0  0  0  0  0
    6.5460   15.2390   -0.2520 C   0  0  0  0  0  0  0  0  0  0  0  0
    7.6050   15.0090   -0.3330 H   0  0  0  0  0  0  0  0  0  0  0  0
    5.9500   15.4220    0.9880 C   0  0  0  0  0  0  0  0  0  0  0  0
    6.5320   15.3450    1.9000 H   0  0  0  0  0  0  0  0  0  0  0  0
    4.5900   15.7140    1.0280 C   0  0  0  0  0  0  0  0  0  0  0  0
    4.0880   15.8740    1.9780 H   0  0  0  0  0  0  0  0  0  0  0  0
   -3.1800   13.5630   -2.2890 O   0  0  0  0  0  0  0  0  0  0  0  0
   -1.2000   11.2520   -1.6320 O   0  0  0  0  0  0  0  0  0  0  0  0
    2.1370   17.2040    0.3490 O   0  0  0  0  0  0  0  0  0  0  0  0
  1  2  1  0  0  0  0
  1  3  1  0  0  0  0
  1  9  2  0  0  0  0
  3  4  1  0  0  0  0
  3  5  2  0  0  0  0
  5  6  1  0  0  0  0
  5  7  1  0  0  0  0
  7  8  2  0  0  0  0
  7 11  1  0  0  0  0
  8  9  1  0  0  0  0
  8 15  1  0  0  0  0
  9 10  1  0  0  0  0
 11 12  1  0  0  0  0
 11 13  1  0  0  0  0
 13 14  1  0  0  0  0
 13 15  2  0  0  0  0
 15 16  1  0  0  0  0
 16 17  1  0  0  0  0
 16 43  2  0  0  0  0
 17 18  1  0  0  0  0
 17 44  2  0  0  0  0
 18 19  1  0  0  0  0
 18 29  1  0  0  0  0
 19 20  1  0  0  0  0
 19 21  1  0  0  0  0
 19 22  1  0  0  0  0
 22 23  1  0  0  0  0
 22 24  1  0  0  0  0
 22 25  1  0  0  0  0
 25 26  1  0  0  0  0
 25 32  1  0  0  0  0
 26 27  1  0  0  0  0
 26 28  1  0  0  0  0
 26 29  1  0  0  0  0
 29 30  1  0  0  0  0
 29 31  1  0  0  0  0
 32 33  1  0  0  0  0
 32 45  2  0  0  0  0
 33 34  1  0  0  0  0
 33 41  2  0  0  0  0
 34 35  1  0  0  0  0
 34 36  2  0  0  0  0
 36 37  1  0  0  0  0
 37 38  1  0  0  0  0
 37 39  2  0  0  0  0
 39 40  1  0  0  0  0
 39 41  1  0  0  0  0
 41 42  1  0  0  0  0
M  END
>  <Activity>
5.3767

>  <AM1_dipole>
5.79577

>  <AM1_E>
-105966

>  <AM1_Eele>
-773858

>  <AM1_HF>
11.7682

>  <AM1_HOMO>
-8.90037

>  <AM1_IP>
8.90037

>  <AM1_LUMO>
-0.50839

>  <diameter>
15

>  <petitjean>
0.466667

>  <petitjeanSC>
0.875

>  <radius>
8

>  <VDistEq>
3.64907

>  <VDistMa>
9.18451

>  <weinerPath>
2023

>  <weinerPol>
44

>  <BCUT_PEOE_0>
-2.71158

>  <BCUT_PEOE_1>
-0.597762

>  <BCUT_PEOE_2>
0.652451

>  <BCUT_PEOE_3>
2.65044

>  <BCUT_SLOGP_0>
-2.86002

>  <BCUT_SLOGP_1>
-0.522399

>  <BCUT_SLOGP_2>
0.725178

>  <BCUT_SLOGP_3>
2.50236

>  <BCUT_SMR_0>
-2.43199

>  <BCUT_SMR_1>
-0.438003

>  <BCUT_SMR_2>
0.800603

>  <BCUT_SMR_3>
2.92003

>  <GCUT_PEOE_0>
-0.860602

>  <GCUT_PEOE_1>
-0.424023

>  <GCUT_PEOE_2>
0.0830207

>  <GCUT_PEOE_3>
2.63755

>  <GCUT_SLOGP_0>
-0.976487

>  <GCUT_SLOGP_1>
-0.340745

>  <GCUT_SLOGP_2>
0.145465

>  <GCUT_SLOGP_3>
2.61132

>  <GCUT_SMR_0>
-0.508915

>  <GCUT_SMR_1>
-0.214487

>  <GCUT_SMR_2>
0.198057

>  <GCUT_SMR_3>
2.9079

>  <a_aro>
15

>  <a_count>
45

>  <a_IC>
72.8813

>  <a_ICM>
1.61958

>  <a_nH>
18

>  <b_1rotN>
5

>  <b_1rotR>
0.166667

>  <b_ar>
16

>  <b_count>
48

>  <b_double>
3

>  <b_rotN>
5

>  <b_rotR>
0.166667

>  <b_single>
29

>  <b_triple>
0

>  <chi0v>
14.591

>  <chi0v_C>
11.5246

>  <chi1v>
8.73961

>  <chi1v_C>
5.36004

>  <chiral>
0

>  <chiral_u>
0

>  <nmol>
1

>  <reactive>
0

>  <rings>
4

>  <Weight>
362.389

>  <a_heavy>
27

>  <a_nB>
0

>  <a_nBr>
0

>  <a_nC>
20

>  <a_nCl>
0

>  <a_nF>
0

>  <a_nI>
0

>  <a_nN>
4

>  <a_nO>
3

>  <a_nP>
0

>  <a_nS>
0

>  <b_heavy>
30

>  <chi0>
18.8028

>  <chi0_C>
13.2338

>  <chi1>
13.1479

>  <chi1_C>
7.20791

>  <FCharge>
0

>  <VAdjEq>
0.410248

>  <VAdjMa>
5.90689

>  <zagreb>
144

>  <balabanJ>
1.27297

>  <PEOE_PC+>
2.40213

>  <PEOE_PC->
-2.40213

>  <PEOE_RPC+>
0.122849

>  <PEOE_RPC->
0.149844

>  <PEOE_VSA+0>
111.915

>  <PEOE_VSA+1>
76.9286

>  <PEOE_VSA+2>
0

>  <PEOE_VSA+3>
8.61901

>  <PEOE_VSA+4>
0

>  <PEOE_VSA+5>
34.3576

>  <PEOE_VSA+6>
0

>  <PEOE_VSA-0>
36.7647

>  <PEOE_VSA-1>
36.7647

>  <PEOE_VSA-2>
0

>  <PEOE_VSA-3>
0

>  <PEOE_VSA-4>
0

>  <PEOE_VSA-5>
46.3833

>  <PEOE_VSA-6>
0.136891

>  <PEOE_VSA_FHYD>
0.770149

>  <PEOE_VSA_FNEG>
0.341176

>  <PEOE_VSA_FPNEG>
0.132209

>  <PEOE_VSA_FPOL>
0.229851

>  <PEOE_VSA_FPOS>
0.658824

>  <PEOE_VSA_FPPOS>
0.0976428

>  <PEOE_VSA_HYD>
270.992

>  <PEOE_VSA_NEG>
120.05

>  <PEOE_VSA_PNEG>
46.5202

>  <PEOE_VSA_POL>
80.8778

>  <PEOE_VSA_POS>
231.82

>  <PEOE_VSA_PPOS>
34.3576

>  <PC+>
5.089

>  <PC->
-5.09

>  <Q_PC+>
5.089

>  <Q_PC->
-5.09

>  <Q_RPC+>
0.128905

>  <Q_RPC->
0.129666

>  <Q_VSA_FHYD>
0.548483

>  <Q_VSA_FNEG>
0.413695

>  <Q_VSA_FPNEG>
0.179411

>  <Q_VSA_FPOL>
0.451517

>  <Q_VSA_FPOS>
0.586305

>  <Q_VSA_FPPOS>
0.272106

>  <Q_VSA_HYD>
192.995

>  <Q_VSA_NEG>
145.567

>  <Q_VSA_PNEG>
63.1293

>  <Q_VSA_POL>
158.875

>  <Q_VSA_POS>
206.303

>  <Q_VSA_PPOS>
95.7459

>  <RPC+>
0.128905

>  <RPC->
0.129666

>  <lip_acc>
7

>  <lip_don>
1

>  <lip_druglike>
1

>  <lip_violation>
0

>  <opr_brigid>
22

>  <opr_leadlike>
1

>  <opr_nring>
4

>  <opr_nrot>
5

>  <opr_violation>
0

>  <E>
91.0854

>  <E_ang>
8.47594

>  <E_ele>
29.7963

>  <E_nb>
75.0913

>  <E_oop>
0.0325433

>  <E_sol>
-24.0543

>  <E_stb>
0.497063

>  <E_str>
5.26967

>  <E_strain>
0.00415228

>  <E_tor>
1.71889

>  <E_vdw>
45.2951

>  <E_rele>
0

>  <E_rnb>
0

>  <E_rsol>
0

>  <E_rvdw>
0

>  <Kier1>
20.28

>  <Kier2>
9.21202

>  <Kier3>
4.45184

>  <KierA1>
13.6224

>  <KierA2>
6.08444

>  <KierA3>
2.90364

>  <KierFlex>
3.0698

>  <logS>
-2.77145

>  <MNDO_dipole>
6.2655

>  <MNDO_E>
-106189

>  <MNDO_Eele>
-765978

>  <MNDO_HF>
-8.23347

>  <MNDO_HOMO>
-8.867

>  <MNDO_IP>
8.867

>  <MNDO_LUMO>
-0.53329

>  <apol>
54.0083

>  <bpol>
28.4917

>  <mr>
10.1057

>  <dipole>
1.43979

>  <dipoleX>
0.147917

>  <dipoleY>
-0.534761

>  <dipoleZ>
1.32859

>  <pmi>
8051.91

>  <pmiX>
6698.35

>  <pmiY>
962.711

>  <pmiZ>
390.85

>  <rgyr>
4.7137

>  <a_acc>
4

>  <a_acid>
0

>  <a_base>
0

>  <a_don>
1

>  <a_hyd>
17

>  <vsa_acc>
46.3833

>  <vsa_acid>
0

>  <vsa_base>
0

>  <vsa_don>
5.68258

>  <vsa_hyd>
250.273

>  <vsa_other>
34.3576

>  <vsa_pol>
52.0659

>  <PM3_dipole>
6.31105

>  <PM3_E>
-96296.6

>  <PM3_Eele>
-762375

>  <PM3_HF>
-1.64249

>  <PM3_HOMO>
-8.84879

>  <PM3_IP>
8.84879

>  <PM3_LUMO>
-0.58731

>  <SlogP>
1.7302

>  <SlogP_VSA0>
0

>  <SlogP_VSA1>
39.2393

>  <SlogP_VSA2>
40.6477

>  <SlogP_VSA3>
73.7583

>  <SlogP_VSA4>
54.0956

>  <SlogP_VSA5>
0

>  <SlogP_VSA6>
0

>  <SlogP_VSA7>
162.219

>  <SlogP_VSA8>
0

>  <SlogP_VSA9>
0

>  <SMR>
9.93497

>  <SMR_VSA0>
71.5866

>  <SMR_VSA1>
23.0342

>  <SMR_VSA2>
16.7855

>  <SMR_VSA3>
6.37115

>  <SMR_VSA4>
4.7171

>  <SMR_VSA5>
157.502

>  <SMR_VSA6>
89.9635

>  <SMR_VSA7>
0

>  <ASA>
614.012

>  <ASA+>
276.082

>  <ASA->
229.122

>  <ASA_H>
443.064

>  <ASA_P>
170.948

>  <CASA+>
1404.98

>  <CASA->
1166.23

>  <DASA>
46.96

>  <DCASA>
238.75

>  <FASA+>
0.449636

>  <FASA->
0.373156

>  <FASA_H>
0.721589

>  <FASA_P>
0.278411

>  <FCASA+>
2.2882

>  <FCASA->
1.89936

>  <VSA>
372.559

>  <TPSA>
86.37

>  <density>
0.760417

>  <vdw_area>
351.87

>  <vdw_vol>
476.566

>  <vsurf_A>
3.1399

>  <vsurf_CP>
0.106824

>  <vsurf_CW1>
2.73804

>  <vsurf_CW2>
2.25163

>  <vsurf_CW3>
1.48927

>  <vsurf_CW4>
0.661786

>  <vsurf_CW5>
0.2723

>  <vsurf_CW6>
0.0847334

>  <vsurf_CW7>
0.00566117

>  <vsurf_CW8>
0

>  <vsurf_D1>
830.625

>  <vsurf_D2>
489.25

>  <vsurf_D3>
367.25

>  <vsurf_D4>
306.625

>  <vsurf_D5>
260.625

>  <vsurf_D6>
208.5

>  <vsurf_D7>
122.5

>  <vsurf_D8>
69.75

>  <vsurf_DD12>
0.707107

>  <vsurf_DD13>
5.61249

>  <vsurf_DD23>
5.14782

>  <vsurf_DW12>
0.5

>  <vsurf_DW13>
0.5

>  <vsurf_DW23>
0.707107

>  <vsurf_EDmin1>
-2.58289

>  <vsurf_EDmin2>
-2.57146

>  <vsurf_EDmin3>
-2.57029

>  <vsurf_EWmin1>
-5.48009

>  <vsurf_EWmin2>
-5.41002

>  <vsurf_EWmin3>
-5.40898

>  <vsurf_G>
1.33972

>  <vsurf_HB1>
357.875

>  <vsurf_HB2>
414.625

>  <vsurf_HB3>
354.25

>  <vsurf_HB4>
130.25

>  <vsurf_HB5>
41.375

>  <vsurf_HB6>
11.625

>  <vsurf_HB7>
1.5

>  <vsurf_HB8>
0

>  <vsurf_HL1>
0.130361

>  <vsurf_HL2>
0.0423971

>  <vsurf_ID1>
0.784245

>  <vsurf_ID2>
0.770983

>  <vsurf_ID3>
0.839309

>  <vsurf_ID4>
0.920596

>  <vsurf_ID5>
1.06784

>  <vsurf_ID6>
1.13162

>  <vsurf_ID7>
0.909237

>  <vsurf_ID8>
0.951617

>  <vsurf_IW1>
0.383444

>  <vsurf_IW2>
0.870966

>  <vsurf_IW3>
1.21193

>  <vsurf_IW4>
1.78394

>  <vsurf_IW5>
2.35258

>  <vsurf_IW6>
3.21821

>  <vsurf_IW7>
3.08989

>  <vsurf_IW8>
0

>  <vsurf_R>
1.42926

>  <vsurf_S>
555.534

>  <vsurf_V>
794

>  <vsurf_W1>
1416.38

>  <vsurf_W2>
865.625

>  <vsurf_W3>
433.125

>  <vsurf_W4>
147.375

>  <vsurf_W5>
47.875

>  <vsurf_W6>
13

>  <vsurf_W7>
1.5

>  <vsurf_W8>
0

>  <vsurf_Wp1>
1058.5

>  <vsurf_Wp2>
451

>  <vsurf_Wp3>
78.875

>  <vsurf_Wp4>
17.125

>  <vsurf_Wp5>
6.5

>  <vsurf_Wp6>
1.375

>  <vsurf_Wp7>
0

>  <vsurf_Wp8>
0

>  <dens>
1.07614

>  <glob>
0.0609206

>  <std_dim1>
4.62888

>  <std_dim2>
1.33625

>  <std_dim3>
1.14251

>  <vol>
336.75

>  <logP(o/w)>
0.85

$$$$
D8.cdx
  MOE2008           3D

 48 51  0  0  0  0  0  0  0  0999 V2000
   -7.4520   10.7650   -0.9900 C   0  0  0  0  0  0  0  0  0  0  0  0
   -8.0010   11.1640   -1.8400 H   0  0  0  0  0  0  0  0  0  0  0  0
   -8.1080   10.5470    0.2180 C   0  0  0  0  0  0  0  0  0  0  0  0
   -9.1670   10.7780    0.3020 H   0  0  0  0  0  0  0  0  0  0  0  0
   -7.4280   10.0320    1.3250 C   0  0  0  0  0  0  0  0  0  0  0  0
   -7.9460    9.8610    2.2640 H   0  0  0  0  0  0  0  0  0  0  0  0
   -6.0660    9.7460    1.1750 C   0  0  0  0  0  0  0  0  0  0  0  0
   -5.3750    9.9530   -0.0210 C   0  0  0  0  0  0  0  0  0  0  0  0
   -6.0890   10.4740   -1.1230 C   0  0  0  0  0  0  0  0  0  0  0  0
   -5.5890   10.6470   -2.0720 H   0  0  0  0  0  0  0  0  0  0  0  0
   -5.1650    9.2380    2.0800 N   0  0  0  0  0  0  0  0  0  0  0  0
   -5.3900    8.9890    3.0340 H   0  0  0  0  0  0  0  0  0  0  0  0
   -3.9300    9.1170    1.5020 C   0  0  0  0  0  0  0  0  0  0  0  0
   -3.1010    8.7220    2.0770 H   0  0  0  0  0  0  0  0  0  0  0  0
   -4.0160    9.5480    0.1910 C   0  0  0  0  0  0  0  0  0  0  0  0
   -2.9180    9.5750   -0.7690 C   0  0  0  0  0  0  0  0  0  0  0  0
   -1.5470    9.0630   -0.3620 C   0  0  0  0  0  0  0  0  0  0  0  0
   -0.5610   10.0190   -0.1220 N   0  0  0  0  0  0  0  0  0  0  0  0
    0.7810    9.5710    0.2490 C   0  0  0  0  0  0  0  0  0  0  0  0
    0.7790    9.4460    1.3390 H   0  0  0  0  0  0  0  0  0  0  0  0
    0.9830    8.5900   -0.1940 H   0  0  0  0  0  0  0  0  0  0  0  0
    1.8660   10.5710   -0.1620 C   0  0  0  0  0  0  0  0  0  0  0  0
    1.8950   10.6560   -1.2540 H   0  0  0  0  0  0  0  0  0  0  0  0
    2.8430   10.2160    0.1800 H   0  0  0  0  0  0  0  0  0  0  0  0
    1.6100   11.9210    0.3630 N   0  0  0  0  0  0  0  0  0  0  0  0
    0.2110   12.2700    0.6280 C   0  0  0  0  0  0  0  0  0  0  0  0
    0.0360   12.0670    1.6920 H   0  0  0  0  0  0  0  0  0  0  0  0
    0.0590   13.3430    0.4690 H   0  0  0  0  0  0  0  0  0  0  0  0
   -0.7780   11.4680   -0.2240 C   0  0  0  0  0  0  0  0  0  0  0  0
   -0.6590   11.7270   -1.2820 H   0  0  0  0  0  0  0  0  0  0  0  0
   -1.8040   11.7160    0.0660 H   0  0  0  0  0  0  0  0  0  0  0  0
    2.5870   12.8710    0.6570 C   0  0  0  0  0  0  0  0  0  0  0  0
    3.9830   12.6010    0.2720 C   0  0  0  0  0  0  0  0  0  0  0  0
    4.3360   12.3980   -1.0530 C   0  0  0  0  0  0  0  0  0  0  0  0
    3.5990   12.4230   -1.8500 H   0  0  0  0  0  0  0  0  0  0  0  0
    5.6050   12.1650   -1.4610 N   0  0  0  0  0  0  0  0  0  0  0  0
    6.5710   12.1580   -0.5100 C   0  0  0  0  0  0  0  0  0  0  0  0
    6.3040   12.3850    0.8400 C   0  0  0  0  0  0  0  0  0  0  0  0
    7.1040   12.3870    1.5740 H   0  0  0  0  0  0  0  0  0  0  0  0
    4.9890   12.6160    1.2340 C   0  0  0  0  0  0  0  0  0  0  0  0
    4.7550   12.8070    2.2780 H   0  0  0  0  0  0  0  0  0  0  0  0
   -3.0380   10.0040   -1.9140 O   0  0  0  0  0  0  0  0  0  0  0  0
   -1.3990    7.8500   -0.2610 O   0  0  0  0  0  0  0  0  0  0  0  0
    2.3600   13.9290    1.2360 O   0  0  0  0  0  0  0  0  0  0  0  0
    7.9770   11.9030   -0.9630 C   0  0  0  0  0  0  0  0  0  0  0  0
    8.6120   12.7630   -0.7280 H   0  0  0  0  0  0  0  0  0  0  0  0
    8.0140   11.7360   -2.0440 H   0  0  0  0  0  0  0  0  0  0  0  0
    8.3780   11.0130   -0.4670 H   0  0  0  0  0  0  0  0  0  0  0  0
  1  2  1  0  0  0  0
  1  3  1  0  0  0  0
  1  9  2  0  0  0  0
  3  4  1  0  0  0  0
  3  5  2  0  0  0  0
  5  6  1  0  0  0  0
  5  7  1  0  0  0  0
  7  8  2  0  0  0  0
  7 11  1  0  0  0  0
  8  9  1  0  0  0  0
  8 15  1  0  0  0  0
  9 10  1  0  0  0  0
 11 12  1  0  0  0  0
 11 13  1  0  0  0  0
 13 14  1  0  0  0  0
 13 15  2  0  0  0  0
 15 16  1  0  0  0  0
 16 17  1  0  0  0  0
 16 42  2  0  0  0  0
 17 18  1  0  0  0  0
 17 43  2  0  0  0  0
 18 19  1  0  0  0  0
 18 29  1  0  0  0  0
 19 20  1  0  0  0  0
 19 21  1  0  0  0  0
 19 22  1  0  0  0  0
 22 23  1  0  0  0  0
 22 24  1  0  0  0  0
 22 25  1  0  0  0  0
 25 26  1  0  0  0  0
 25 32  1  0  0  0  0
 26 27  1  0  0  0  0
 26 28  1  0  0  0  0
 26 29  1  0  0  0  0
 29 30  1  0  0  0  0
 29 31  1  0  0  0  0
 32 33  1  0  0  0  0
 32 44  2  0  0  0  0
 33 34  1  0  0  0  0
 33 40  2  0  0  0  0
 34 35  1  0  0  0  0
 34 36  2  0  0  0  0
 36 37  1  0  0  0  0
 37 38  2  0  0  0  0
 37 45  1  0  0  0  0
 38 39  1  0  0  0  0
 38 40  1  0  0  0  0
 40 41  1  0  0  0  0
 45 46  1  0  0  0  0
 45 47  1  0  0  0  0
 45 48  1  0  0  0  0
M  END
>  <Activity>
5.0655

>  <AM1_dipole>
4.81692

>  <AM1_E>
-109558

>  <AM1_Eele>
-814373

>  <AM1_HF>
6.30722

>  <AM1_HOMO>
-8.87935

>  <AM1_IP>
8.87935

>  <AM1_LUMO>
-0.4998

>  <diameter>
16

>  <petitjean>
0.5

>  <petitjeanSC>
1

>  <radius>
8

>  <VDistEq>
3.71892

>  <VDistMa>
9.28576

>  <weinerPath>
2264

>  <weinerPol>
46

>  <BCUT_PEOE_0>
-2.71161

>  <BCUT_PEOE_1>
-0.569316

>  <BCUT_PEOE_2>
0.612204

>  <BCUT_PEOE_3>
2.6505

>  <BCUT_SLOGP_0>
-2.86003

>  <BCUT_SLOGP_1>
-0.483412

>  <BCUT_SLOGP_2>
0.690396

>  <BCUT_SLOGP_3>
2.50284

>  <BCUT_SMR_0>
-2.43201

>  <BCUT_SMR_1>
-0.406039

>  <BCUT_SMR_2>
0.759873

>  <BCUT_SMR_3>
2.92011

>  <GCUT_PEOE_0>
-0.860602

>  <GCUT_PEOE_1>
-0.424003

>  <GCUT_PEOE_2>
0.0717532

>  <GCUT_PEOE_3>
2.65527

>  <GCUT_SLOGP_0>
-0.976488

>  <GCUT_SLOGP_1>
-0.340179

>  <GCUT_SLOGP_2>
0.131926

>  <GCUT_SLOGP_3>
2.63126

>  <GCUT_SMR_0>
-0.508943

>  <GCUT_SMR_1>
-0.202573

>  <GCUT_SMR_2>
0.190832

>  <GCUT_SMR_3>
2.92485

>  <a_aro>
15

>  <a_count>
48

>  <a_IC>
76.6461

>  <a_ICM>
1.59679

>  <a_nH>
20

>  <b_1rotN>
5

>  <b_1rotR>
0.16129

>  <b_ar>
16

>  <b_count>
51

>  <b_double>
3

>  <b_rotN>
5

>  <b_rotR>
0.16129

>  <b_single>
32

>  <b_triple>
0

>  <chi0v>
15.5136

>  <chi0v_C>
12.4472

>  <chi1v>
9.16036

>  <chi1v_C>
5.81538

>  <chiral>
0

>  <chiral_u>
0

>  <nmol>
1

>  <reactive>
0

>  <rings>
4

>  <Weight>
376.416

>  <a_heavy>
28

>  <a_nB>
0

>  <a_nBr>
0

>  <a_nC>
21

>  <a_nCl>
0

>  <a_nF>
0

>  <a_nI>
0

>  <a_nN>
4

>  <a_nO>
3

>  <a_nP>
0

>  <a_nS>
0

>  <b_heavy>
31

>  <chi0>
19.673

>  <chi0_C>
14.1041

>  <chi1>
13.5417

>  <chi1_C>
7.69351

>  <FCharge>
0

>  <VAdjEq>
0.398935

>  <VAdjMa>
5.9542

>  <zagreb>
150

>  <balabanJ>
1.26157

>  <PEOE_PC+>
2.41821

>  <PEOE_PC->
-2.41821

>  <PEOE_RPC+>
0.122032

>  <PEOE_RPC->
0.148848

>  <PEOE_VSA+0>
114.665

>  <PEOE_VSA+1>
72.6633

>  <PEOE_VSA+2>
0

>  <PEOE_VSA+3>
8.61901

>  <PEOE_VSA+4>
0

>  <PEOE_VSA+5>
34.3576

>  <PEOE_VSA+6>
0

>  <PEOE_VSA-0>
55.5124

>  <PEOE_VSA-1>
36.7647

>  <PEOE_VSA-2>
0

>  <PEOE_VSA-3>
0

>  <PEOE_VSA-4>
0

>  <PEOE_VSA-5>
46.3833

>  <PEOE_VSA-6>
0.136891

>  <PEOE_VSA_FHYD>
0.78088

>  <PEOE_VSA_FNEG>
0.37604

>  <PEOE_VSA_FPNEG>
0.126036

>  <PEOE_VSA_FPOL>
0.21912

>  <PEOE_VSA_FPOS>
0.62396

>  <PEOE_VSA_FPPOS>
0.0930842

>  <PEOE_VSA_HYD>
288.224

>  <PEOE_VSA_NEG>
138.797

>  <PEOE_VSA_PNEG>
46.5202

>  <PEOE_VSA_POL>
80.8778

>  <PEOE_VSA_POS>
230.305

>  <PEOE_VSA_PPOS>
34.3576

>  <PC+>
5.089

>  <PC->
-5.09

>  <Q_PC+>
5.089

>  <Q_PC->
-5.09

>  <Q_RPC+>
0.128905

>  <Q_RPC->
0.129666

>  <Q_VSA_FHYD>
0.569563

>  <Q_VSA_FNEG>
0.394381

>  <Q_VSA_FPNEG>
0.171035

>  <Q_VSA_FPOL>
0.430437

>  <Q_VSA_FPOS>
0.605619

>  <Q_VSA_FPPOS>
0.259402

>  <Q_VSA_HYD>
210.227

>  <Q_VSA_NEG>
145.567

>  <Q_VSA_PNEG>
63.1293

>  <Q_VSA_POL>
158.875

>  <Q_VSA_POS>
223.535

>  <Q_VSA_PPOS>
95.7459

>  <RPC+>
0.128905

>  <RPC->
0.129666

>  <lip_acc>
7

>  <lip_don>
1

>  <lip_druglike>
1

>  <lip_violation>
0

>  <opr_brigid>
22

>  <opr_leadlike>
1

>  <opr_nring>
4

>  <opr_nrot>
5

>  <opr_violation>
0

>  <E>
93.7666

>  <E_ang>
7.84701

>  <E_ele>
29.494

>  <E_nb>
76.2647

>  <E_oop>
0.0536517

>  <E_sol>
-25.549

>  <E_stb>
0.570105

>  <E_str>
5.4462

>  <E_strain>
0.00497213

>  <E_tor>
3.58492

>  <E_vdw>
46.7707

>  <E_rele>
0

>  <E_rnb>
-5.68434e-014

>  <E_rsol>
-5.68434e-014

>  <E_rvdw>
0

>  <Kier1>
21.2404

>  <Kier2>
9.42769

>  <Kier3>
4.69444

>  <KierA1>
14.4909

>  <KierA2>
6.33273

>  <KierA3>
3.11857

>  <KierFlex>
3.2774

>  <logS>
-3.08484

>  <MNDO_dipole>
4.38428

>  <MNDO_E>
-109801

>  <MNDO_Eele>
-808628

>  <MNDO_HF>
-17.3709

>  <MNDO_HOMO>
-8.83799

>  <MNDO_IP>
8.83799

>  <MNDO_LUMO>
-0.60291

>  <apol>
57.1019

>  <bpol>
30.6781

>  <mr>
10.5561

>  <dipole>
1.14134

>  <dipoleX>
0.178487

>  <dipoleY>
-0.200257

>  <dipoleZ>
1.10936

>  <pmi>
9353.71

>  <pmiX>
8114.03

>  <pmiY>
845.588

>  <pmiZ>
394.096

>  <rgyr>
4.98492

>  <a_acc>
4

>  <a_acid>
0

>  <a_base>
0

>  <a_don>
1

>  <a_hyd>
18

>  <vsa_acc>
46.3833

>  <vsa_acid>
0

>  <vsa_base>
0

>  <vsa_don>
5.68258

>  <vsa_hyd>
266.081

>  <vsa_other>
34.3576

>  <vsa_pol>
52.0659

>  <PM3_dipole>
4.8135

>  <PM3_E>
-99746.5

>  <PM3_Eele>
-799119

>  <PM3_HF>
-34.0858

>  <PM3_HOMO>
-8.83819

>  <PM3_IP>
8.83819

>  <PM3_LUMO>
-0.5687

>  <SlogP>
2.03862

>  <SlogP_VSA0>
0

>  <SlogP_VSA1>
39.2393

>  <SlogP_VSA2>
40.6477

>  <SlogP_VSA3>
73.7583

>  <SlogP_VSA4>
56.8523

>  <SlogP_VSA5>
0

>  <SlogP_VSA6>
0

>  <SlogP_VSA7>
145.005

>  <SlogP_VSA8>
0

>  <SlogP_VSA9>
33.326

>  <SMR>
10.4087

>  <SMR_VSA0>
71.5866

>  <SMR_VSA1>
23.0342

>  <SMR_VSA2>
16.7855

>  <SMR_VSA3>
9.1279

>  <SMR_VSA4>
4.7171

>  <SMR_VSA5>
140.288

>  <SMR_VSA6>
89.9635

>  <SMR_VSA7>
33.326

>  <ASA>
641.476

>  <ASA+>
255.763

>  <ASA->
216.15

>  <ASA_H>
473.247

>  <ASA_P>
168.228

>  <CASA+>
1301.58

>  <CASA->
1100.2

>  <DASA>
39.6136

>  <DCASA>
201.378

>  <FASA+>
0.398711

>  <FASA->
0.336957

>  <FASA_H>
0.737748

>  <FASA_P>
0.262252

>  <FCASA+>
2.02904

>  <FCASA->
1.71511

>  <VSA>
391.509

>  <TPSA>
86.37

>  <density>
0.751336

>  <vdw_area>
369.102

>  <vdw_vol>
500.996

>  <vsurf_A>
2.04389

>  <vsurf_CP>
0.110418

>  <vsurf_CW1>
2.69623

>  <vsurf_CW2>
2.16202

>  <vsurf_CW3>
1.44542

>  <vsurf_CW4>
0.619852

>  <vsurf_CW5>
0.255019

>  <vsurf_CW6>
0.0844228

>  <vsurf_CW7>
0.00458553

>  <vsurf_CW8>
0

>  <vsurf_D1>
874.875

>  <vsurf_D2>
517.875

>  <vsurf_D3>
390.875

>  <vsurf_D4>
329.125

>  <vsurf_D5>
278

>  <vsurf_D6>
215.375

>  <vsurf_D7>
129.125

>  <vsurf_D8>
79.375

>  <vsurf_DD12>
0.5

>  <vsurf_DD13>
4.06202

>  <vsurf_DD23>
3.77492

>  <vsurf_DW12>
5.59017

>  <vsurf_DW13>
7.08872

>  <vsurf_DW23>
12.083

>  <vsurf_EDmin1>
-2.64602

>  <vsurf_EDmin2>
-2.57635

>  <vsurf_EDmin3>
-2.56318

>  <vsurf_EWmin1>
-5.46189

>  <vsurf_EWmin2>
-5.27229

>  <vsurf_EWmin3>
-5.23135

>  <vsurf_G>
1.36424

>  <vsurf_HB1>
362.625

>  <vsurf_HB2>
430.5

>  <vsurf_HB3>
359.5

>  <vsurf_HB4>
128.375

>  <vsurf_HB5>
42

>  <vsurf_HB6>
12

>  <vsurf_HB7>
1

>  <vsurf_HB8>
0

>  <vsurf_HL1>
0.122482

>  <vsurf_HL2>
0.0398785

>  <vsurf_ID1>
0.429402

>  <vsurf_ID2>
0.425222

>  <vsurf_ID3>
0.432468

>  <vsurf_ID4>
0.488608

>  <vsurf_ID5>
0.492692

>  <vsurf_ID6>
0.807713

>  <vsurf_ID7>
0.821165

>  <vsurf_ID8>
0.691981

>  <vsurf_IW1>
0.158532

>  <vsurf_IW2>
0.392987

>  <vsurf_IW3>
0.718277

>  <vsurf_IW4>
1.18505

>  <vsurf_IW5>
1.78457

>  <vsurf_IW6>
2.49555

>  <vsurf_IW7>
2.58821

>  <vsurf_IW8>
0

>  <vsurf_R>
1.42575

>  <vsurf_S>
583.727

>  <vsurf_V>
832.25

>  <vsurf_W1>
1445.13

>  <vsurf_W2>
877.25

>  <vsurf_W3>
440.75

>  <vsurf_W4>
144.25

>  <vsurf_W5>
47.875

>  <vsurf_W6>
13.125

>  <vsurf_W7>
1

>  <vsurf_W8>
0

>  <vsurf_Wp1>
1082.5

>  <vsurf_Wp2>
446.75

>  <vsurf_Wp3>
81.25

>  <vsurf_Wp4>
15.875

>  <vsurf_Wp5>
5.875

>  <vsurf_Wp6>
1.125

>  <vsurf_Wp7>
0

>  <vsurf_Wp8>
0

>  <dens>
1.05402

>  <glob>
0.0517555

>  <std_dim1>
5.08834

>  <std_dim2>
1.24818

>  <std_dim3>
1.15759

>  <vol>
357.125

>  <logP(o/w)>
1.109

$$$$
D8.cdx
  MOE2008           3D

 52 55  0  0  0  0  0  0  0  0999 V2000
   -7.3410    6.6160   -0.8970 C   0  0  0  0  0  0  0  0  0  0  0  0
   -8.0360    6.6770   -1.7300 H   0  0  0  0  0  0  0  0  0  0  0  0
   -7.7920    6.8520    0.3990 C   0  0  0  0  0  0  0  0  0  0  0  0
   -8.8380    7.0960    0.5680 H   0  0  0  0  0  0  0  0  0  0  0  0
   -6.9200    6.7800    1.4900 C   0  0  0  0  0  0  0  0  0  0  0  0
   -7.2750    6.9650    2.4980 H   0  0  0  0  0  0  0  0  0  0  0  0
   -5.5820    6.4590    1.2310 C   0  0  0  0  0  0  0  0  0  0  0  0
   -5.0960    6.2160   -0.0550 C   0  0  0  0  0  0  0  0  0  0  0  0
   -5.9990    6.2990   -1.1370 C   0  0  0  0  0  0  0  0  0  0  0  0
   -5.6600    6.1160   -2.1540 H   0  0  0  0  0  0  0  0  0  0  0  0
   -4.5240    6.3180    2.0980 N   0  0  0  0  0  0  0  0  0  0  0  0
   -4.5830    6.4380    3.1000 H   0  0  0  0  0  0  0  0  0  0  0  0
   -3.3870    5.9910    1.4080 C   0  0  0  0  0  0  0  0  0  0  0  0
   -2.4570    5.8350    1.9410 H   0  0  0  0  0  0  0  0  0  0  0  0
   -3.6980    5.9170    0.0620 C   0  0  0  0  0  0  0  0  0  0  0  0
   -2.7620    5.6010   -1.0090 C   0  0  0  0  0  0  0  0  0  0  0  0
   -1.3250    5.2480   -0.6740 C   0  0  0  0  0  0  0  0  0  0  0  0
   -0.3780    6.2620   -0.7830 N   0  0  0  0  0  0  0  0  0  0  0  0
    1.0260    5.9740   -0.4880 C   0  0  0  0  0  0  0  0  0  0  0  0
    1.1460    4.9600   -0.0950 H   0  0  0  0  0  0  0  0  0  0  0  0
    1.5680    6.0300   -1.4390 H   0  0  0  0  0  0  0  0  0  0  0  0
    1.6050    6.9900    0.5060 C   0  0  0  0  0  0  0  0  0  0  0  0
    2.6600    6.7800    0.6550 H   0  0  0  0  0  0  0  0  0  0  0  0
    1.1120    6.8810    1.4800 H   0  0  0  0  0  0  0  0  0  0  0  0
    1.3560    8.3700    0.0620 N   0  0  0  0  0  0  0  0  0  0  0  0
   -0.0640    8.6480   -0.2040 C   0  0  0  0  0  0  0  0  0  0  0  0
   -0.5860    8.5710    0.7590 H   0  0  0  0  0  0  0  0  0  0  0  0
   -0.2190    9.6650   -0.5770 H   0  0  0  0  0  0  0  0  0  0  0  0
   -0.6570    7.6430   -1.2010 C   0  0  0  0  0  0  0  0  0  0  0  0
   -0.1930    7.7730   -2.1860 H   0  0  0  0  0  0  0  0  0  0  0  0
   -1.7280    7.8230   -1.3110 H   0  0  0  0  0  0  0  0  0  0  0  0
    2.2750    9.3910   -0.1170 C   0  0  0  0  0  0  0  0  0  0  0  0
    3.7690    9.1850    0.1530 C   0  0  0  0  0  0  0  0  0  0  0  0
    4.2160   10.1710   -0.0570 H   0  0  0  0  0  0  0  0  0  0  0  0
    4.4420    8.2280   -0.8370 C   0  0  0  0  0  0  0  0  0  0  0  0
    3.9990    7.2300   -0.8120 H   0  0  0  0  0  0  0  0  0  0  0  0
    4.2890    8.5910   -1.8610 H   0  0  0  0  0  0  0  0  0  0  0  0
    5.9400    8.1010   -0.5650 C   0  0  0  0  0  0  0  0  0  0  0  0
    6.3690    7.3350   -1.2200 H   0  0  0  0  0  0  0  0  0  0  0  0
    6.4370    9.0470   -0.8150 H   0  0  0  0  0  0  0  0  0  0  0  0
    6.2230    7.7490    0.8930 C   0  0  0  0  0  0  0  0  0  0  0  0
    7.3060    7.7060    1.0560 H   0  0  0  0  0  0  0  0  0  0  0  0
    5.8250    6.7520    1.1140 H   0  0  0  0  0  0  0  0  0  0  0  0
    5.6040    8.7690    1.8440 C   0  0  0  0  0  0  0  0  0  0  0  0
    6.0860    9.7440    1.6980 H   0  0  0  0  0  0  0  0  0  0  0  0
    5.7980    8.4730    2.8820 H   0  0  0  0  0  0  0  0  0  0  0  0
    4.0990    8.9090    1.6240 C   0  0  0  0  0  0  0  0  0  0  0  0
    3.7150    9.7270    2.2460 H   0  0  0  0  0  0  0  0  0  0  0  0
    3.6090    8.0050    1.9940 H   0  0  0  0  0  0  0  0  0  0  0  0
   -3.0660    5.6130   -2.1990 O   0  0  0  0  0  0  0  0  0  0  0  0
   -1.0970    4.0970   -0.3160 O   0  0  0  0  0  0  0  0  0  0  0  0
    1.9180   10.5100   -0.5070 O   0  0  0  0  0  0  0  0  0  0  0  0
  1  2  1  0  0  0  0
  1  3  1  0  0  0  0
  1  9  2  0  0  0  0
  3  4  1  0  0  0  0
  3  5  2  0  0  0  0
  5  6  1  0  0  0  0
  5  7  1  0  0  0  0
  7  8  2  0  0  0  0
  7 11  1  0  0  0  0
  8  9  1  0  0  0  0
  8 15  1  0  0  0  0
  9 10  1  0  0  0  0
 11 12  1  0  0  0  0
 11 13  1  0  0  0  0
 13 14  1  0  0  0  0
 13 15  2  0  0  0  0
 15 16  1  0  0  0  0
 16 17  1  0  0  0  0
 16 50  2  0  0  0  0
 17 18  1  0  0  0  0
 17 51  2  0  0  0  0
 18 19  1  0  0  0  0
 18 29  1  0  0  0  0
 19 20  1  0  0  0  0
 19 21  1  0  0  0  0
 19 22  1  0  0  0  0
 22 23  1  0  0  0  0
 22 24  1  0  0  0  0
 22 25  1  0  0  0  0
 25 26  1  0  0  0  0
 25 32  1  0  0  0  0
 26 27  1  0  0  0  0
 26 28  1  0  0  0  0
 26 29  1  0  0  0  0
 29 30  1  0  0  0  0
 29 31  1  0  0  0  0
 32 33  1  0  0  0  0
 32 52  2  0  0  0  0
 33 34  1  0  0  0  0
 33 35  1  0  0  0  0
 33 47  1  0  0  0  0
 35 36  1  0  0  0  0
 35 37  1  0  0  0  0
 35 38  1  0  0  0  0
 38 39  1  0  0  0  0
 38 40  1  0  0  0  0
 38 41  1  0  0  0  0
 41 42  1  0  0  0  0
 41 43  1  0  0  0  0
 41 44  1  0  0  0  0
 44 45  1  0  0  0  0
 44 46  1  0  0  0  0
 44 47  1  0  0  0  0
 47 48  1  0  0  0  0
 47 49  1  0  0  0  0
M  END
>  <Activity>
5.4559

>  <AM1_dipole>
5.4111

>  <AM1_E>
-106414

>  <AM1_Eele>
-830839

>  <AM1_HF>
-55.5598

>  <AM1_HOMO>
-8.85782

>  <AM1_IP>
8.85782

>  <AM1_LUMO>
-0.46338

>  <diameter>
15

>  <petitjean>
0.466667

>  <petitjeanSC>
0.875

>  <radius>
8

>  <VDistEq>
3.64907

>  <VDistMa>
9.18451

>  <weinerPath>
2023

>  <weinerPol>
44

>  <BCUT_PEOE_0>
-2.78844

>  <BCUT_PEOE_1>
-0.534962

>  <BCUT_PEOE_2>
0.590732

>  <BCUT_PEOE_3>
2.75393

>  <BCUT_SLOGP_0>
-2.87375

>  <BCUT_SLOGP_1>
-0.463641

>  <BCUT_SLOGP_2>
0.676001

>  <BCUT_SLOGP_3>
2.85854

>  <BCUT_SMR_0>
-2.53494

>  <BCUT_SMR_1>
-0.393858

>  <BCUT_SMR_2>
0.726996

>  <BCUT_SMR_3>
3.00645

>  <GCUT_PEOE_0>
-0.860602

>  <GCUT_PEOE_1>
-0.404949

>  <GCUT_PEOE_2>
0.0615561

>  <GCUT_PEOE_3>
2.80572

>  <GCUT_SLOGP_0>
-0.976528

>  <GCUT_SLOGP_1>
-0.3359

>  <GCUT_SLOGP_2>
0.12655

>  <GCUT_SLOGP_3>
2.80973

>  <GCUT_SMR_0>
-0.530056

>  <GCUT_SMR_1>
-0.220793

>  <GCUT_SMR_2>
0.165334

>  <GCUT_SMR_3>
3.04969

>  <a_aro>
9

>  <a_count>
52

>  <a_IC>
78.578

>  <a_ICM>
1.51112

>  <a_nH>
25

>  <b_1rotN>
5

>  <b_1rotR>
0.166667

>  <b_ar>
10

>  <b_count>
55

>  <b_double>
3

>  <b_rotN>
5

>  <b_rotR>
0.166667

>  <b_single>
42

>  <b_triple>
0

>  <chi0v>
15.4472

>  <chi0v_C>
12.8281

>  <chi1v>
9.83437

>  <chi1v_C>
6.9712

>  <chiral>
0

>  <chiral_u>
0

>  <nmol>
1

>  <reactive>
0

>  <rings>
4

>  <Weight>
367.449

>  <a_heavy>
27

>  <a_nB>
0

>  <a_nBr>
0

>  <a_nC>
21

>  <a_nCl>
0

>  <a_nF>
0

>  <a_nI>
0

>  <a_nN>
3

>  <a_nO>
3

>  <a_nP>
0

>  <a_nS>
0

>  <b_heavy>
30

>  <chi0>
18.8028

>  <chi0_C>
13.9409

>  <chi1>
13.1479

>  <chi1_C>
8.20791

>  <FCharge>
0

>  <VAdjEq>
0.410248

>  <VAdjMa>
5.90689

>  <zagreb>
144

>  <balabanJ>
1.27234

>  <PEOE_PC+>
2.30056

>  <PEOE_PC->
-2.30056

>  <PEOE_RPC+>
0.128273

>  <PEOE_RPC->
0.15646

>  <PEOE_VSA+0>
125.343

>  <PEOE_VSA+1>
57.6586

>  <PEOE_VSA+2>
0

>  <PEOE_VSA+3>
8.61901

>  <PEOE_VSA+4>
12.9495

>  <PEOE_VSA+5>
21.4081

>  <PEOE_VSA+6>
0

>  <PEOE_VSA-0>
29.6575

>  <PEOE_VSA-1>
62.8687

>  <PEOE_VSA-2>
0

>  <PEOE_VSA-3>
0

>  <PEOE_VSA-4>
0

>  <PEOE_VSA-5>
40.7008

>  <PEOE_VSA-6>
0.136891

>  <PEOE_VSA_FHYD>
0.790742

>  <PEOE_VSA_FNEG>
0.371134

>  <PEOE_VSA_FPNEG>
0.113646

>  <PEOE_VSA_FPOL>
0.209258

>  <PEOE_VSA_FPOS>
0.628866

>  <PEOE_VSA_FPPOS>
0.0956126

>  <PEOE_VSA_HYD>
284.146

>  <PEOE_VSA_NEG>
133.364

>  <PEOE_VSA_PNEG>
40.8377

>  <PEOE_VSA_POL>
75.1952

>  <PEOE_VSA_POS>
225.978

>  <PEOE_VSA_PPOS>
34.3576

>  <PC+>
4.169

>  <PC->
-4.17

>  <Q_PC+>
4.169

>  <Q_PC->
-4.17

>  <Q_RPC+>
0.157352

>  <Q_RPC->
0.158273

>  <Q_VSA_FHYD>
0.573685

>  <Q_VSA_FNEG>
0.321072

>  <Q_VSA_FPNEG>
0.159867

>  <Q_VSA_FPOL>
0.426315

>  <Q_VSA_FPOS>
0.678928

>  <Q_VSA_FPPOS>
0.266448

>  <Q_VSA_HYD>
206.149

>  <Q_VSA_NEG>
115.374

>  <Q_VSA_PNEG>
57.4467

>  <Q_VSA_POL>
153.193

>  <Q_VSA_POS>
243.967

>  <Q_VSA_PPOS>
95.7459

>  <RPC+>
0.157352

>  <RPC->
0.158273

>  <lip_acc>
6

>  <lip_don>
1

>  <lip_druglike>
1

>  <lip_violation>
0

>  <opr_brigid>
22

>  <opr_leadlike>
1

>  <opr_nring>
4

>  <opr_nrot>
7

>  <opr_violation>
0

>  <E>
75.7995

>  <E_ang>
14.2488

>  <E_ele>
26.0673

>  <E_nb>
65.9633

>  <E_oop>
0.0182295

>  <E_sol>
-21.7731

>  <E_stb>
-0.0485491

>  <E_str>
5.93644

>  <E_strain>
0.00546034

>  <E_tor>
-10.3187

>  <E_vdw>
39.896

>  <E_rele>
0

>  <E_rnb>
0

>  <E_rsol>
0

>  <E_rvdw>
0

>  <Kier1>
20.28

>  <Kier2>
9.21202

>  <Kier3>
4.45184

>  <KierA1>
15.1283

>  <KierA2>
6.78868

>  <KierA3>
3.25109

>  <KierFlex>
3.80375

>  <logS>
-4.11621

>  <MNDO_dipole>
3.73569

>  <MNDO_E>
-106693

>  <MNDO_Eele>
-820292

>  <MNDO_HF>
-60.5085

>  <MNDO_HOMO>
-8.78205

>  <MNDO_IP>
8.78205

>  <MNDO_LUMO>
-0.42952

>  <apol>
59.3358

>  <bpol>
34.8242

>  <mr>
10.3724

>  <dipole>
1.14727

>  <dipoleX>
0.254819

>  <dipoleY>
0.0535376

>  <dipoleZ>
1.11733

>  <pmi>
7746.28

>  <pmiX>
6439.88

>  <pmiY>
852.031

>  <pmiZ>
454.372

>  <rgyr>
4.59143

>  <a_acc>
3

>  <a_acid>
0

>  <a_base>
0

>  <a_don>
1

>  <a_hyd>
18

>  <vsa_acc>
40.7008

>  <vsa_acid>
0

>  <vsa_base>
0

>  <vsa_don>
5.68258

>  <vsa_hyd>
257.099

>  <vsa_other>
34.3576

>  <vsa_pol>
46.3833

>  <PM3_dipole>
5.07689

>  <PM3_E>
-97818

>  <PM3_Eele>
-826308

>  <PM3_HF>
-85.3436

>  <PM3_HOMO>
-8.83078

>  <PM3_IP>
8.83078

>  <PM3_LUMO>
-0.5632

>  <SlogP>
2.6017

>  <SlogP_VSA0>
0

>  <SlogP_VSA1>
22.4538

>  <SlogP_VSA2>
64.51

>  <SlogP_VSA3>
73.7583

>  <SlogP_VSA4>
31.4586

>  <SlogP_VSA5>
0

>  <SlogP_VSA6>
0

>  <SlogP_VSA7>
92.5042

>  <SlogP_VSA8>
94.342

>  <SlogP_VSA9>
0

>  <SMR>
10.2364

>  <SMR_VSA0>
71.5866

>  <SMR_VSA1>
6.24863

>  <SMR_VSA2>
21.1963

>  <SMR_VSA3>
3.18558

>  <SMR_VSA4>
4.7171

>  <SMR_VSA5>
182.129

>  <SMR_VSA6>
89.9635

>  <SMR_VSA7>
0

>  <ASA>
629.314

>  <ASA+>
154.084

>  <ASA->
178.034

>  <ASA_H>
473.514

>  <ASA_P>
155.8

>  <CASA+>
642.378

>  <CASA->
742.402

>  <DASA>
23.9496

>  <DCASA>
100.024

>  <FASA+>
0.244845

>  <FASA->
0.282902

>  <FASA_H>
0.752429

>  <FASA_P>
0.247571

>  <FCASA+>
1.02076

>  <FCASA->
1.1797

>  <VSA>
394.315

>  <TPSA>
73.48

>  <density>
0.730011

>  <vdw_area>
359.342

>  <vdw_vol>
503.347

>  <vsurf_A>
1.95002

>  <vsurf_CP>
0.142613

>  <vsurf_CW1>
2.64675

>  <vsurf_CW2>
1.97697

>  <vsurf_CW3>
1.22238

>  <vsurf_CW4>
0.547854

>  <vsurf_CW5>
0.213367

>  <vsurf_CW6>
0.0560536

>  <vsurf_CW7>
0.00302254

>  <vsurf_CW8>
0

>  <vsurf_D1>
842.375

>  <vsurf_D2>
488.25

>  <vsurf_D3>
377.875

>  <vsurf_D4>
331.5

>  <vsurf_D5>
292.5

>  <vsurf_D6>
234.75

>  <vsurf_D7>
117.875

>  <vsurf_D8>
63.625

>  <vsurf_DD12>
0.5

>  <vsurf_DD13>
1.22474

>  <vsurf_DD23>
0.866025

>  <vsurf_DW12>
5.83095

>  <vsurf_DW13>
0.5

>  <vsurf_DW23>
5.59017

>  <vsurf_EDmin1>
-2.80427

>  <vsurf_EDmin2>
-2.66315

>  <vsurf_EDmin3>
-2.62712

>  <vsurf_EWmin1>
-5.26399

>  <vsurf_EWmin2>
-5.2581

>  <vsurf_EWmin3>
-5.17453

>  <vsurf_G>
1.32842

>  <vsurf_HB1>
333.25

>  <vsurf_HB2>
372.375

>  <vsurf_HB3>
295.125

>  <vsurf_HB4>
101.625

>  <vsurf_HB5>
31.25

>  <vsurf_HB6>
6.875

>  <vsurf_HB7>
0.875

>  <vsurf_HB8>
0

>  <vsurf_HL1>
0.09957

>  <vsurf_HL2>
0.025641

>  <vsurf_ID1>
0.52374

>  <vsurf_ID2>
0.580174

>  <vsurf_ID3>
0.618708

>  <vsurf_ID4>
0.698776

>  <vsurf_ID5>
0.833414

>  <vsurf_ID6>
0.877002

>  <vsurf_ID7>
0.927881

>  <vsurf_ID8>
1.27691

>  <vsurf_IW1>
0.260214

>  <vsurf_IW2>
0.649082

>  <vsurf_IW3>
0.929866

>  <vsurf_IW4>
1.30535

>  <vsurf_IW5>
1.33583

>  <vsurf_IW6>
2.27884

>  <vsurf_IW7>
4.16454

>  <vsurf_IW8>
0

>  <vsurf_R>
1.46177

>  <vsurf_S>
566.521

>  <vsurf_V>
828.125

>  <vsurf_W1>
1314.13

>  <vsurf_W2>
740.75

>  <vsurf_W3>
365

>  <vsurf_W4>
118.625

>  <vsurf_W5>
37.625

>  <vsurf_W6>
8.5

>  <vsurf_W7>
0.875

>  <vsurf_W8>
0

>  <vsurf_Wp1>
980.875

>  <vsurf_Wp2>
368.375

>  <vsurf_Wp3>
69.875

>  <vsurf_Wp4>
17

>  <vsurf_Wp5>
6.375

>  <vsurf_Wp6>
1.625

>  <vsurf_Wp7>
0

>  <vsurf_Wp8>
0

>  <dens>
1.01963

>  <glob>
0.0642704

>  <std_dim1>
4.62797

>  <std_dim2>
1.37886

>  <std_dim3>
1.17327

>  <vol>
360.375

>  <logP(o/w)>
2.098

$$$$
D8.cdx
  MOE2008           3D

 46 49  0  0  0  0  0  0  0  0999 V2000
   -7.0160    3.4820   -0.3740 C   0  0  0  0  0  0  0  0  0  0  0  0
   -7.7160    4.1380   -0.8830 H   0  0  0  0  0  0  0  0  0  0  0  0
   -7.4450    2.6710    0.6710 C   0  0  0  0  0  0  0  0  0  0  0  0
   -8.4870    2.6960    0.9790 H   0  0  0  0  0  0  0  0  0  0  0  0
   -6.5530    1.8210    1.3300 C   0  0  0  0  0  0  0  0  0  0  0  0
   -6.8920    1.1870    2.1440 H   0  0  0  0  0  0  0  0  0  0  0  0
   -5.2170    1.8150    0.9050 C   0  0  0  0  0  0  0  0  0  0  0  0
   -4.7470    2.6160   -0.1420 C   0  0  0  0  0  0  0  0  0  0  0  0
   -5.6790    3.4610   -0.7830 C   0  0  0  0  0  0  0  0  0  0  0  0
   -4.1510    1.0840    1.3710 N   0  0  0  0  0  0  0  0  0  0  0  0
   -4.2000    0.4150    2.1280 H   0  0  0  0  0  0  0  0  0  0  0  0
   -3.0230    1.3930    0.6630 C   0  0  0  0  0  0  0  0  0  0  0  0
   -2.0860    0.9020    0.8990 H   0  0  0  0  0  0  0  0  0  0  0  0
   -3.3460    2.3400   -0.2940 C   0  0  0  0  0  0  0  0  0  0  0  0
   -2.4010    2.9150   -1.2460 C   0  0  0  0  0  0  0  0  0  0  0  0
   -0.9580    2.4480   -1.2470 C   0  0  0  0  0  0  0  0  0  0  0  0
   -0.0260    3.2620   -0.6110 N   0  0  0  0  0  0  0  0  0  0  0  0
    1.3790    2.8560   -0.5610 C   0  0  0  0  0  0  0  0  0  0  0  0
    1.6080    2.6390    0.4890 H   0  0  0  0  0  0  0  0  0  0  0  0
    1.5450    1.9370   -1.1320 H   0  0  0  0  0  0  0  0  0  0  0  0
    2.3050    3.9660   -1.0790 C   0  0  0  0  0  0  0  0  0  0  0  0
    2.1600    4.1070   -2.1570 H   0  0  0  0  0  0  0  0  0  0  0  0
    3.3410    3.6650   -0.9110 H   0  0  0  0  0  0  0  0  0  0  0  0
    2.0010    5.2570   -0.4370 N   0  0  0  0  0  0  0  0  0  0  0  0
    0.5890    5.6530   -0.4870 C   0  0  0  0  0  0  0  0  0  0  0  0
    0.4160    6.5780    0.0710 H   0  0  0  0  0  0  0  0  0  0  0  0
    0.3560    5.8530   -1.5400 H   0  0  0  0  0  0  0  0  0  0  0  0
   -0.3230    4.5430    0.0480 C   0  0  0  0  0  0  0  0  0  0  0  0
   -1.3690    4.8300   -0.0740 H   0  0  0  0  0  0  0  0  0  0  0  0
   -0.1440    4.3940    1.1190 H   0  0  0  0  0  0  0  0  0  0  0  0
    2.9180    6.0920    0.1960 C   0  0  0  0  0  0  0  0  0  0  0  0
    4.3610    5.7890    0.0780 C   0  0  0  0  0  0  0  0  0  0  0  0
    4.9850    5.7990   -1.1740 C   0  0  0  0  0  0  0  0  0  0  0  0
    4.4160    6.0110   -2.0750 H   0  0  0  0  0  0  0  0  0  0  0  0
    6.3530    5.5410   -1.2610 C   0  0  0  0  0  0  0  0  0  0  0  0
    6.8470    5.5410   -2.2290 H   0  0  0  0  0  0  0  0  0  0  0  0
    7.0920    5.2910   -0.1020 C   0  0  0  0  0  0  0  0  0  0  0  0
    8.1590    5.0930   -0.1720 H   0  0  0  0  0  0  0  0  0  0  0  0
    6.4680    5.3040    1.1480 C   0  0  0  0  0  0  0  0  0  0  0  0
    7.0510    5.1220    2.0470 H   0  0  0  0  0  0  0  0  0  0  0  0
    5.1000    5.5600    1.2420 C   0  0  0  0  0  0  0  0  0  0  0  0
    4.6150    5.5830    2.2140 H   0  0  0  0  0  0  0  0  0  0  0  0
   -2.6930    3.7800   -2.0660 O   0  0  0  0  0  0  0  0  0  0  0  0
   -0.7110    1.3790   -1.7950 O   0  0  0  0  0  0  0  0  0  0  0  0
    2.6100    7.0790    0.8580 O   0  0  0  0  0  0  0  0  0  0  0  0
   -5.3240    4.2630   -1.7970 F   0  0  0  0  0  0  0  0  0  0  0  0
  1  2  1  0  0  0  0
  1  3  1  0  0  0  0
  1  9  2  0  0  0  0
  3  4  1  0  0  0  0
  3  5  2  0  0  0  0
  5  6  1  0  0  0  0
  5  7  1  0  0  0  0
  7  8  2  0  0  0  0
  7 10  1  0  0  0  0
  8  9  1  0  0  0  0
  8 14  1  0  0  0  0
  9 46  1  0  0  0  0
 10 11  1  0  0  0  0
 10 12  1  0  0  0  0
 12 13  1  0  0  0  0
 12 14  2  0  0  0  0
 14 15  1  0  0  0  0
 15 16  1  0  0  0  0
 15 43  2  0  0  0  0
 16 17  1  0  0  0  0
 16 44  2  0  0  0  0
 17 18  1  0  0  0  0
 17 28  1  0  0  0  0
 18 19  1  0  0  0  0
 18 20  1  0  0  0  0
 18 21  1  0  0  0  0
 21 22  1  0  0  0  0
 21 23  1  0  0  0  0
 21 24  1  0  0  0  0
 24 25  1  0  0  0  0
 24 31  1  0  0  0  0
 25 26  1  0  0  0  0
 25 27  1  0  0  0  0
 25 28  1  0  0  0  0
 28 29  1  0  0  0  0
 28 30  1  0  0  0  0
 31 32  1  0  0  0  0
 31 45  2  0  0  0  0
 32 33  1  0  0  0  0
 32 41  2  0  0  0  0
 33 34  1  0  0  0  0
 33 35  2  0  0  0  0
 35 36  1  0  0  0  0
 35 37  1  0  0  0  0
 37 38  1  0  0  0  0
 37 39  2  0  0  0  0
 39 40  1  0  0  0  0
 39 41  1  0  0  0  0
 41 42  1  0  0  0  0
M  END
>  <Activity>
8.585

>  <AM1_dipole>
5.84258

>  <AM1_E>
-115335

>  <AM1_Eele>
-835177

>  <AM1_HF>
-40.2049

>  <AM1_HOMO>
-8.8514

>  <AM1_IP>
8.8514

>  <AM1_LUMO>
-0.59889

>  <diameter>
15

>  <petitjean>
0.466667

>  <petitjeanSC>
0.875

>  <radius>
8

>  <VDistEq>
3.66276

>  <VDistMa>
9.29304

>  <weinerPath>
2210

>  <weinerPol>
47

>  <BCUT_PEOE_0>
-2.71188

>  <BCUT_PEOE_1>
-0.639824

>  <BCUT_PEOE_2>
0.645599

>  <BCUT_PEOE_3>
2.65028

>  <BCUT_SLOGP_0>
-2.86001

>  <BCUT_SLOGP_1>
-0.53808

>  <BCUT_SLOGP_2>
0.776123

>  <BCUT_SLOGP_3>
2.50334

>  <BCUT_SMR_0>
-2.43203

>  <BCUT_SMR_1>
-0.433377

>  <BCUT_SMR_2>
0.826276

>  <BCUT_SMR_3>
2.92024

>  <GCUT_PEOE_0>
-0.859949

>  <GCUT_PEOE_1>
-0.403743

>  <GCUT_PEOE_2>
0.080099

>  <GCUT_PEOE_3>
2.65156

>  <GCUT_SLOGP_0>
-0.976487

>  <GCUT_SLOGP_1>
-0.336589

>  <GCUT_SLOGP_2>
0.164454

>  <GCUT_SLOGP_3>
2.62884

>  <GCUT_SMR_0>
-0.508913

>  <GCUT_SMR_1>
-0.216057

>  <GCUT_SMR_2>
0.193051

>  <GCUT_SMR_3>
2.92007

>  <a_aro>
15

>  <a_count>
46

>  <a_IC>
77.2768

>  <a_ICM>
1.67993

>  <a_nH>
18

>  <b_1rotN>
5

>  <b_1rotR>
0.16129

>  <b_ar>
16

>  <b_count>
49

>  <b_double>
3

>  <b_rotN>
5

>  <b_rotR>
0.16129

>  <b_single>
30

>  <b_triple>
0

>  <chi0v>
15.0217

>  <chi0v_C>
12.0246

>  <chi1v>
8.99553

>  <chi1v_C>
5.94338

>  <chiral>
0

>  <chiral_u>
0

>  <nmol>
1

>  <reactive>
0

>  <rings>
4

>  <Weight>
379.391

>  <a_heavy>
28

>  <a_nB>
0

>  <a_nBr>
0

>  <a_nC>
21

>  <a_nCl>
0

>  <a_nF>
1

>  <a_nI>
0

>  <a_nN>
3

>  <a_nO>
3

>  <a_nP>
0

>  <a_nS>
0

>  <b_heavy>
31

>  <chi0>
19.673

>  <chi0_C>
13.8112

>  <chi1>
13.5586

>  <chi1_C>
8.04124

>  <FCharge>
0

>  <VAdjEq>
0.398935

>  <VAdjMa>
5.9542

>  <zagreb>
150

>  <balabanJ>
1.29268

>  <PEOE_PC+>
2.44754

>  <PEOE_PC->
-2.44754

>  <PEOE_RPC+>
0.12057

>  <PEOE_RPC->
0.147035

>  <PEOE_VSA+0>
80.6318

>  <PEOE_VSA+1>
74.7201

>  <PEOE_VSA+2>
9.02085

>  <PEOE_VSA+3>
8.61901

>  <PEOE_VSA+4>
0

>  <PEOE_VSA+5>
34.3576

>  <PEOE_VSA+6>
0

>  <PEOE_VSA-0>
49.0196

>  <PEOE_VSA-1>
49.0196

>  <PEOE_VSA-2>
0

>  <PEOE_VSA-3>
0

>  <PEOE_VSA-4>
11.9086

>  <PEOE_VSA-5>
40.7008

>  <PEOE_VSA-6>
0.136891

>  <PEOE_VSA_FHYD>
0.756785

>  <PEOE_VSA_FNEG>
0.42103

>  <PEOE_VSA_FPNEG>
0.14728

>  <PEOE_VSA_FPOL>
0.243215

>  <PEOE_VSA_FPOS>
0.57897

>  <PEOE_VSA_FPPOS>
0.0959347

>  <PEOE_VSA_HYD>
271.031

>  <PEOE_VSA_NEG>
150.786

>  <PEOE_VSA_PNEG>
52.7463

>  <PEOE_VSA_POL>
87.1039

>  <PEOE_VSA_POS>
207.349

>  <PEOE_VSA_PPOS>
34.3576

>  <PC+>
4.959

>  <PC->
-4.96

>  <Q_PC+>
4.959

>  <Q_PC->
-4.96

>  <Q_RPC+>
0.132285

>  <Q_RPC->
0.133065

>  <Q_VSA_FHYD>
0.572249

>  <Q_VSA_FNEG>
0.49228

>  <Q_VSA_FPNEG>
0.160405

>  <Q_VSA_FPOL>
0.427751

>  <Q_VSA_FPOS>
0.50772

>  <Q_VSA_FPPOS>
0.267346

>  <Q_VSA_HYD>
204.942

>  <Q_VSA_NEG>
176.303

>  <Q_VSA_PNEG>
57.4467

>  <Q_VSA_POL>
153.193

>  <Q_VSA_POS>
181.832

>  <Q_VSA_PPOS>
95.7459

>  <RPC+>
0.132285

>  <RPC->
0.133065

>  <lip_acc>
6

>  <lip_don>
1

>  <lip_druglike>
1

>  <lip_violation>
0

>  <opr_brigid>
22

>  <opr_leadlike>
1

>  <opr_nring>
4

>  <opr_nrot>
5

>  <opr_violation>
0

>  <E>
94.2557

>  <E_ang>
8.07139

>  <E_ele>
33.206

>  <E_nb>
78.1227

>  <E_oop>
0.0220073

>  <E_sol>
-20.044

>  <E_stb>
0.313394

>  <E_str>
5.96405

>  <E_strain>
0.0035802

>  <E_tor>
1.76217

>  <E_vdw>
44.9167

>  <E_rele>
0

>  <E_rnb>
0

>  <E_rsol>
0

>  <E_rvdw>
0

>  <Kier1>
21.2404

>  <Kier2>
9.42769

>  <Kier3>
4.54179

>  <KierA1>
14.4569

>  <KierA2>
6.31723

>  <KierA3>
3.00956

>  <KierFlex>
3.26171

>  <logS>
-4.32457

>  <MNDO_dipole>
6.09652

>  <MNDO_E>
-115417

>  <MNDO_Eele>
-826485

>  <MNDO_HF>
-59.0743

>  <MNDO_HOMO>
-8.91092

>  <MNDO_IP>
8.91092

>  <MNDO_LUMO>
-0.66769

>  <apol>
55.2253

>  <bpol>
28.3747

>  <mr>
10.353

>  <dipole>
1.45539

>  <dipoleX>
0.311107

>  <dipoleY>
-1.00433

>  <dipoleZ>
1.00632

>  <pmi>
8593.04

>  <pmiX>
7105.83

>  <pmiY>
1068.09

>  <pmiZ>
419.122

>  <rgyr>
4.75915

>  <a_acc>
3

>  <a_acid>
0

>  <a_base>
0

>  <a_don>
1

>  <a_hyd>
19

>  <vsa_acc>
40.7008

>  <vsa_acid>
0

>  <vsa_base>
0

>  <vsa_don>
5.68258

>  <vsa_hyd>
262.22

>  <vsa_other>
34.3576

>  <vsa_pol>
46.3833

>  <PM3_dipole>
6.00784

>  <PM3_E>
-105442

>  <PM3_Eele>
-824748

>  <PM3_HF>
-76.0277

>  <PM3_HOMO>
-8.90242

>  <PM3_IP>
8.90242

>  <PM3_LUMO>
-0.67427

>  <SlogP>
2.4743

>  <SlogP_VSA0>
0

>  <SlogP_VSA1>
22.4538

>  <SlogP_VSA2>
49.7688

>  <SlogP_VSA3>
73.7583

>  <SlogP_VSA4>
54.0956

>  <SlogP_VSA5>
0

>  <SlogP_VSA6>
0

>  <SlogP_VSA7>
163.077

>  <SlogP_VSA8>
0

>  <SlogP_VSA9>
14.9601

>  <SMR>
10.1513

>  <SMR_VSA0>
71.5866

>  <SMR_VSA1>
21.2087

>  <SMR_VSA2>
25.9065

>  <SMR_VSA3>
6.37115

>  <SMR_VSA4>
4.7171

>  <SMR_VSA5>
158.36

>  <SMR_VSA6>
89.9635

>  <SMR_VSA7>
0

>  <ASA>
622.47

>  <ASA+>
255.599

>  <ASA->
260.426

>  <ASA_H>
471.689

>  <ASA_P>
150.781

>  <CASA+>
1267.52

>  <CASA->
1291.71

>  <DASA>
4.82642

>  <DCASA>
24.1946

>  <FASA+>
0.410621

>  <FASA->
0.418375

>  <FASA_H>
0.75777

>  <FASA_P>
0.24223

>  <FCASA+>
2.03627

>  <FCASA->
2.07514

>  <VSA>
382.181

>  <TPSA>
73.48

>  <density>
0.776193

>  <vdw_area>
358.135

>  <vdw_vol>
488.784

>  <vsurf_A>
2.10981

>  <vsurf_CP>
0.113276

>  <vsurf_CW1>
2.66471

>  <vsurf_CW2>
2.13197

>  <vsurf_CW3>
1.31068

>  <vsurf_CW4>
0.626107

>  <vsurf_CW5>
0.252238

>  <vsurf_CW6>
0.0678784

>  <vsurf_CW7>
0.00661982

>  <vsurf_CW8>
0

>  <vsurf_D1>
855

>  <vsurf_D2>
496.25

>  <vsurf_D3>
370.875

>  <vsurf_D4>
319.625

>  <vsurf_D5>
272.375

>  <vsurf_D6>
225

>  <vsurf_D7>
129.5

>  <vsurf_D8>
66

>  <vsurf_DD12>
5.38516

>  <vsurf_DD13>
5.40833

>  <vsurf_DD23>
0.5

>  <vsurf_DW12>
0.707107

>  <vsurf_DW13>
5.52268

>  <vsurf_DW23>
5.52268

>  <vsurf_EDmin1>
-2.65515

>  <vsurf_EDmin2>
-2.60852

>  <vsurf_EDmin3>
-2.57968

>  <vsurf_EWmin1>
-5.5344

>  <vsurf_EWmin2>
-5.52211

>  <vsurf_EWmin3>
-5.37199

>  <vsurf_G>
1.34654

>  <vsurf_HB1>
295.25

>  <vsurf_HB2>
351.5

>  <vsurf_HB3>
320.875

>  <vsurf_HB4>
123.125

>  <vsurf_HB5>
36.5

>  <vsurf_HB6>
8.375

>  <vsurf_HB7>
1.25

>  <vsurf_HB8>
0

>  <vsurf_HL1>
0.116279

>  <vsurf_HL2>
0.0316777

>  <vsurf_ID1>
0.838738

>  <vsurf_ID2>
0.902224

>  <vsurf_ID3>
1.01639

>  <vsurf_ID4>
1.13301

>  <vsurf_ID5>
1.27521

>  <vsurf_ID6>
1.202

>  <vsurf_ID7>
0.872563

>  <vsurf_ID8>
1.21159

>  <vsurf_IW1>
0.182444

>  <vsurf_IW2>
0.445505

>  <vsurf_IW3>
0.869017

>  <vsurf_IW4>
1.29261

>  <vsurf_IW5>
1.15683

>  <vsurf_IW6>
1.6386

>  <vsurf_IW7>
2.91519

>  <vsurf_IW8>
0

>  <vsurf_R>
1.43474

>  <vsurf_S>
568.396

>  <vsurf_V>
815.5

>  <vsurf_W1>
1356.75

>  <vsurf_W2>
799.25

>  <vsurf_W3>
398.375

>  <vsurf_W4>
140

>  <vsurf_W5>
43.125

>  <vsurf_W6>
10.125

>  <vsurf_W7>
1.25

>  <vsurf_W8>
0

>  <vsurf_Wp1>
1061.5

>  <vsurf_Wp2>
447.75

>  <vsurf_Wp3>
77.5

>  <vsurf_Wp4>
16.875

>  <vsurf_Wp5>
6.625

>  <vsurf_Wp6>
1.75

>  <vsurf_Wp7>
0

>  <vsurf_Wp8>
0

>  <dens>
1.09413

>  <glob>
0.0575605

>  <std_dim1>
4.73435

>  <std_dim2>
1.34061

>  <std_dim3>
1.13586

>  <vol>
346.75

>  <logP(o/w)>
2.234

$$$$
D8.cdx
  MOE2008           3D

 45 48  0  0  0  0  0  0  0  0999 V2000
   -6.8640    0.7240    1.0140 C   0  0  0  0  0  0  0  0  0  0  0  0
   -7.6810    1.4300    0.8960 H   0  0  0  0  0  0  0  0  0  0  0  0
   -6.9750   -0.3350    1.9090 C   0  0  0  0  0  0  0  0  0  0  0  0
   -7.8850   -0.4540    2.4920 H   0  0  0  0  0  0  0  0  0  0  0  0
   -5.9320   -1.2510    2.0680 C   0  0  0  0  0  0  0  0  0  0  0  0
   -6.0240   -2.0780    2.7660 H   0  0  0  0  0  0  0  0  0  0  0  0
   -4.7750   -1.0660    1.2990 C   0  0  0  0  0  0  0  0  0  0  0  0
   -4.6250   -0.0140    0.3880 C   0  0  0  0  0  0  0  0  0  0  0  0
   -5.7020    0.8900    0.2560 C   0  0  0  0  0  0  0  0  0  0  0  0
   -3.6210   -1.8100    1.2570 N   0  0  0  0  0  0  0  0  0  0  0  0
   -3.4520   -2.6390    1.8110 H   0  0  0  0  0  0  0  0  0  0  0  0
   -2.7420   -1.2680    0.3590 C   0  0  0  0  0  0  0  0  0  0  0  0
   -1.7780   -1.7350    0.1990 H   0  0  0  0  0  0  0  0  0  0  0  0
   -3.3270   -0.1510   -0.2130 C   0  0  0  0  0  0  0  0  0  0  0  0
   -2.7010    0.6890   -1.2290 C   0  0  0  0  0  0  0  0  0  0  0  0
   -1.3270    0.3240   -1.7640 C   0  0  0  0  0  0  0  0  0  0  0  0
   -0.2350    1.0090   -1.2330 N   0  0  0  0  0  0  0  0  0  0  0  0
    1.1100    0.6540   -1.6870 C   0  0  0  0  0  0  0  0  0  0  0  0
    1.1340   -0.3940   -2.0070 H   0  0  0  0  0  0  0  0  0  0  0  0
    1.3140    1.2710   -2.5710 H   0  0  0  0  0  0  0  0  0  0  0  0
    2.1770    0.9040   -0.6170 C   0  0  0  0  0  0  0  0  0  0  0  0
    3.1640    0.6880   -1.0370 H   0  0  0  0  0  0  0  0  0  0  0  0
    2.0030    0.2370    0.2360 H   0  0  0  0  0  0  0  0  0  0  0  0
    2.1470    2.2790   -0.0990 N   0  0  0  0  0  0  0  0  0  0  0  0
    0.8840    3.0080   -0.2430 C   0  0  0  0  0  0  0  0  0  0  0  0
    0.7890    3.7550    0.5520 H   0  0  0  0  0  0  0  0  0  0  0  0
    0.9410    3.5470   -1.1960 H   0  0  0  0  0  0  0  0  0  0  0  0
   -0.3370    2.0830   -0.2370 C   0  0  0  0  0  0  0  0  0  0  0  0
   -1.2450    2.6680   -0.4060 H   0  0  0  0  0  0  0  0  0  0  0  0
   -0.4340    1.5930    0.7390 H   0  0  0  0  0  0  0  0  0  0  0  0
    3.2310    2.9390    0.4920 C   0  0  0  0  0  0  0  0  0  0  0  0
    4.4920    2.1970    0.8130 C   0  0  0  0  0  0  0  0  0  0  0  0
    4.3880    0.8880    1.1600 N   0  0  0  0  0  0  0  0  0  0  0  0
    5.5370    0.2540    1.4830 C   0  0  0  0  0  0  0  0  0  0  0  0
    5.4290   -0.7920    1.7550 H   0  0  0  0  0  0  0  0  0  0  0  0
    6.7830    0.8610    1.4830 C   0  0  0  0  0  0  0  0  0  0  0  0
    7.6730    0.3020    1.7510 H   0  0  0  0  0  0  0  0  0  0  0  0
    6.8600    2.2040    1.1350 C   0  0  0  0  0  0  0  0  0  0  0  0
    7.8190    2.7160    1.1290 H   0  0  0  0  0  0  0  0  0  0  0  0
    5.6980    2.8920    0.7990 C   0  0  0  0  0  0  0  0  0  0  0  0
    5.7370    3.9440    0.5350 H   0  0  0  0  0  0  0  0  0  0  0  0
   -3.2200    1.6960   -1.7000 O   0  0  0  0  0  0  0  0  0  0  0  0
   -1.2660   -0.5580   -2.6140 O   0  0  0  0  0  0  0  0  0  0  0  0
    3.2030    4.1410    0.7610 O   0  0  0  0  0  0  0  0  0  0  0  0
   -5.6520    1.9290   -0.5900 F   0  0  0  0  0  0  0  0  0  0  0  0
  1  2  1  0  0  0  0
  1  3  1  0  0  0  0
  1  9  2  0  0  0  0
  3  4  1  0  0  0  0
  3  5  2  0  0  0  0
  5  6  1  0  0  0  0
  5  7  1  0  0  0  0
  7  8  2  0  0  0  0
  7 10  1  0  0  0  0
  8  9  1  0  0  0  0
  8 14  1  0  0  0  0
  9 45  1  0  0  0  0
 10 11  1  0  0  0  0
 10 12  1  0  0  0  0
 12 13  1  0  0  0  0
 12 14  2  0  0  0  0
 14 15  1  0  0  0  0
 15 16  1  0  0  0  0
 15 42  2  0  0  0  0
 16 17  1  0  0  0  0
 16 43  2  0  0  0  0
 17 18  1  0  0  0  0
 17 28  1  0  0  0  0
 18 19  1  0  0  0  0
 18 20  1  0  0  0  0
 18 21  1  0  0  0  0
 21 22  1  0  0  0  0
 21 23  1  0  0  0  0
 21 24  1  0  0  0  0
 24 25  1  0  0  0  0
 24 31  1  0  0  0  0
 25 26  1  0  0  0  0
 25 27  1  0  0  0  0
 25 28  1  0  0  0  0
 28 29  1  0  0  0  0
 28 30  1  0  0  0  0
 31 32  1  0  0  0  0
 31 44  2  0  0  0  0
 32 33  1  0  0  0  0
 32 40  2  0  0  0  0
 33 34  2  0  0  0  0
 34 35  1  0  0  0  0
 34 36  1  0  0  0  0
 36 37  1  0  0  0  0
 36 38  2  0  0  0  0
 38 39  1  0  0  0  0
 38 40  1  0  0  0  0
 40 41  1  0  0  0  0
M  END
>  <Activity>
8.3467

>  <AM1_dipole>
6.63381

>  <AM1_E>
-116831

>  <AM1_Eele>
-837532

>  <AM1_HF>
-26.7589

>  <AM1_HOMO>
-8.80802

>  <AM1_IP>
8.80802

>  <AM1_LUMO>
-0.55748

>  <diameter>
15

>  <petitjean>
0.466667

>  <petitjeanSC>
0.875

>  <radius>
8

>  <VDistEq>
3.66276

>  <VDistMa>
9.29304

>  <weinerPath>
2210

>  <weinerPol>
47

>  <BCUT_PEOE_0>
-2.71049

>  <BCUT_PEOE_1>
-0.573069

>  <BCUT_PEOE_2>
0.613289

>  <BCUT_PEOE_3>
2.65114

>  <BCUT_SLOGP_0>
-2.86011

>  <BCUT_SLOGP_1>
-0.489196

>  <BCUT_SLOGP_2>
0.7287

>  <BCUT_SLOGP_3>
2.50093

>  <BCUT_SMR_0>
-2.43183

>  <BCUT_SMR_1>
-0.413055

>  <BCUT_SMR_2>
0.760359

>  <BCUT_SMR_3>
2.91942

>  <GCUT_PEOE_0>
-0.859948

>  <GCUT_PEOE_1>
-0.425553

>  <GCUT_PEOE_2>
0.0726134

>  <GCUT_PEOE_3>
2.6371

>  <GCUT_SLOGP_0>
-0.976497

>  <GCUT_SLOGP_1>
-0.341609

>  <GCUT_SLOGP_2>
0.17662

>  <GCUT_SLOGP_3>
2.6038

>  <GCUT_SMR_0>
-0.508859

>  <GCUT_SMR_1>
-0.203504

>  <GCUT_SMR_2>
0.190864

>  <GCUT_SMR_3>
2.90263

>  <a_aro>
15

>  <a_count>
45

>  <a_IC>
78.4531

>  <a_ICM>
1.7434

>  <a_nH>
17

>  <b_1rotN>
5

>  <b_1rotR>
0.16129

>  <b_ar>
16

>  <b_count>
48

>  <b_double>
3

>  <b_rotN>
5

>  <b_rotR>
0.16129

>  <b_single>
29

>  <b_triple>
0

>  <chi0v>
14.8916

>  <chi0v_C>
11.4472

>  <chi1v>
8.85533

>  <chi1v_C>
5.32137

>  <chiral>
0

>  <chiral_u>
0

>  <nmol>
1

>  <reactive>
0

>  <rings>
4

>  <Weight>
380.379

>  <a_heavy>
28

>  <a_nB>
0

>  <a_nBr>
0

>  <a_nC>
20

>  <a_nCl>
0

>  <a_nF>
1

>  <a_nI>
0

>  <a_nN>
4

>  <a_nO>
3

>  <a_nP>
0

>  <a_nS>
0

>  <b_heavy>
31

>  <chi0>
19.673

>  <chi0_C>
13.1041

>  <chi1>
13.5586

>  <chi1_C>
7.13299

>  <FCharge>
0

>  <VAdjEq>
0.398935

>  <VAdjMa>
5.9542

>  <zagreb>
150

>  <balabanJ>
1.29268

>  <PEOE_PC+>
2.54478

>  <PEOE_PC->
-2.54478

>  <PEOE_RPC+>
0.115963

>  <PEOE_RPC->
0.141416

>  <PEOE_VSA+0>
95.1692

>  <PEOE_VSA+1>
70.4547

>  <PEOE_VSA+2>
15.7204

>  <PEOE_VSA+3>
8.61901

>  <PEOE_VSA+4>
0

>  <PEOE_VSA+5>
34.3576

>  <PEOE_VSA+6>
0

>  <PEOE_VSA-0>
49.0196

>  <PEOE_VSA-1>
24.5098

>  <PEOE_VSA-2>
0

>  <PEOE_VSA-3>
0

>  <PEOE_VSA-4>
11.9086

>  <PEOE_VSA-5>
46.3833

>  <PEOE_VSA-6>
0.136891

>  <PEOE_VSA_FHYD>
0.739568

>  <PEOE_VSA_FNEG>
0.370379

>  <PEOE_VSA_FPNEG>
0.163997

>  <PEOE_VSA_FPOL>
0.260432

>  <PEOE_VSA_FPOS>
0.629621

>  <PEOE_VSA_FPPOS>
0.0964344

>  <PEOE_VSA_HYD>
263.493

>  <PEOE_VSA_NEG>
131.958

>  <PEOE_VSA_PNEG>
58.4289

>  <PEOE_VSA_POL>
92.7864

>  <PEOE_VSA_POS>
224.321

>  <PEOE_VSA_PPOS>
34.3576

>  <PC+>
5.279

>  <PC->
-5.28

>  <Q_PC+>
5.279

>  <Q_PC->
-5.28

>  <Q_RPC+>
0.124266

>  <Q_RPC->
0.125

>  <Q_VSA_FHYD>
0.535267

>  <Q_VSA_FNEG>
0.442

>  <Q_VSA_FPNEG>
0.17719

>  <Q_VSA_FPOL>
0.464733

>  <Q_VSA_FPOS>
0.558

>  <Q_VSA_FPPOS>
0.287543

>  <Q_VSA_HYD>
190.705

>  <Q_VSA_NEG>
157.475

>  <Q_VSA_PNEG>
63.1293

>  <Q_VSA_POL>
165.575

>  <Q_VSA_POS>
198.804

>  <Q_VSA_PPOS>
102.445

>  <RPC+>
0.124266

>  <RPC->
0.125

>  <lip_acc>
7

>  <lip_don>
1

>  <lip_druglike>
1

>  <lip_violation>
0

>  <opr_brigid>
22

>  <opr_leadlike>
1

>  <opr_nring>
4

>  <opr_nrot>
5

>  <opr_violation>
0

>  <E>
102.949

>  <E_ang>
8.29603

>  <E_ele>
41.6761

>  <E_nb>
88.198

>  <E_oop>
0.0369736

>  <E_sol>
-22.2729

>  <E_stb>
0.960509

>  <E_str>
5.94937

>  <E_strain>
0.00385519

>  <E_tor>
-0.491433

>  <E_vdw>
46.5219

>  <E_rele>
0

>  <E_rnb>
0

>  <E_rsol>
0

>  <E_rvdw>
0

>  <Kier1>
21.2404

>  <Kier2>
9.42769

>  <Kier3>
4.54179

>  <KierA1>
14.3849

>  <KierA2>
6.28438

>  <KierA3>
2.99344

>  <KierFlex>
3.22857

>  <logS>
-3.21935

>  <MNDO_dipole>
7.58291

>  <MNDO_E>
-116918

>  <MNDO_Eele>
-832784

>  <MNDO_HF>
-44.1201

>  <MNDO_HOMO>
-8.89529

>  <MNDO_IP>
8.89529

>  <MNDO_LUMO>
-0.65286

>  <apol>
53.8985

>  <bpol>
28.6015

>  <mr>
10.1795

>  <dipole>
1.98212

>  <dipoleX>
1.05007

>  <dipoleY>
-1.24445

>  <dipoleZ>
1.13027

>  <pmi>
8352.66

>  <pmiX>
6921.65

>  <pmiY>
847.349

>  <pmiZ>
583.66

>  <rgyr>
4.68602

>  <a_acc>
4

>  <a_acid>
0

>  <a_base>
0

>  <a_don>
1

>  <a_hyd>
18

>  <vsa_acc>
46.3833

>  <vsa_acid>
0

>  <vsa_base>
0

>  <vsa_don>
5.68258

>  <vsa_hyd>
255.394

>  <vsa_other>
34.3576

>  <vsa_pol>
52.0659

>  <PM3_dipole>
6.64485

>  <PM3_E>
-106088

>  <PM3_Eele>
-817296

>  <PM3_HF>
-63.5253

>  <PM3_HOMO>
-8.85536

>  <PM3_IP>
8.85536

>  <PM3_LUMO>
-0.65823

>  <SlogP>
1.8693

>  <SlogP_VSA0>
0

>  <SlogP_VSA1>
39.2393

>  <SlogP_VSA2>
49.7688

>  <SlogP_VSA3>
73.7583

>  <SlogP_VSA4>
53.6668

>  <SlogP_VSA5>
0

>  <SlogP_VSA6>
0

>  <SlogP_VSA7>
145.005

>  <SlogP_VSA8>
0

>  <SlogP_VSA9>
14.9601

>  <SMR>
9.93077

>  <SMR_VSA0>
71.5866

>  <SMR_VSA1>
37.9943

>  <SMR_VSA2>
25.9065

>  <SMR_VSA3>
5.94232

>  <SMR_VSA4>
4.7171

>  <SMR_VSA5>
140.288

>  <SMR_VSA6>
89.9635

>  <SMR_VSA7>
0

>  <ASA>
615.575

>  <ASA+>
267.771

>  <ASA->
238.558

>  <ASA_H>
452.844

>  <ASA_P>
162.731

>  <CASA+>
1413.56

>  <CASA->
1259.59

>  <DASA>
29.2129

>  <DCASA>
153.976

>  <FASA+>
0.434993

>  <FASA->
0.387537

>  <FASA_H>
0.735644

>  <FASA_P>
0.264356

>  <FCASA+>
2.29633

>  <FCASA->
2.04619

>  <VSA>
373.557

>  <TPSA>
86.37

>  <density>
0.792938

>  <vdw_area>
356.279

>  <vdw_vol>
479.709

>  <vsurf_A>
2.72164

>  <vsurf_CP>
0.0964231

>  <vsurf_CW1>
2.69007

>  <vsurf_CW2>
2.19357

>  <vsurf_CW3>
1.47327

>  <vsurf_CW4>
0.731846

>  <vsurf_CW5>
0.293812

>  <vsurf_CW6>
0.0812596

>  <vsurf_CW7>
0.00373497

>  <vsurf_CW8>
0

>  <vsurf_D1>
829.75

>  <vsurf_D2>
476.25

>  <vsurf_D3>
350.875

>  <vsurf_D4>
293.25

>  <vsurf_D5>
245.5

>  <vsurf_D6>
200.875

>  <vsurf_D7>
109.5

>  <vsurf_D8>
60.5

>  <vsurf_DD12>
0.5

>  <vsurf_DD13>
0.5

>  <vsurf_DD23>
0.707107

>  <vsurf_DW12>
0.707107

>  <vsurf_DW13>
5.33854

>  <vsurf_DW23>
5.38516

>  <vsurf_EDmin1>
-2.64772

>  <vsurf_EDmin2>
-2.59388

>  <vsurf_EDmin3>
-2.51288

>  <vsurf_EWmin1>
-5.42563

>  <vsurf_EWmin2>
-5.30558

>  <vsurf_EWmin3>
-5.18047

>  <vsurf_G>
1.35125

>  <vsurf_HB1>
319.125

>  <vsurf_HB2>
394.5

>  <vsurf_HB3>
362.875

>  <vsurf_HB4>
143.25

>  <vsurf_HB5>
43.875

>  <vsurf_HB6>
10.375

>  <vsurf_HB7>
0.625

>  <vsurf_HB8>
0

>  <vsurf_HL1>
0.142145

>  <vsurf_HL2>
0.0421995

>  <vsurf_ID1>
1.20838

>  <vsurf_ID2>
1.23839

>  <vsurf_ID3>
1.32801

>  <vsurf_ID4>
1.50782

>  <vsurf_ID5>
1.63059

>  <vsurf_ID6>
1.70434

>  <vsurf_ID7>
1.18647

>  <vsurf_ID8>
1.01493

>  <vsurf_IW1>
0.171024

>  <vsurf_IW2>
0.481182

>  <vsurf_IW3>
0.922061

>  <vsurf_IW4>
1.42369

>  <vsurf_IW5>
1.43083

>  <vsurf_IW6>
1.69903

>  <vsurf_IW7>
4.41531

>  <vsurf_IW8>
0

>  <vsurf_R>
1.41802

>  <vsurf_S>
561.083

>  <vsurf_V>
795.625

>  <vsurf_W1>
1390.25

>  <vsurf_W2>
852.25

>  <vsurf_W3>
448

>  <vsurf_W4>
159.625

>  <vsurf_W5>
49.875

>  <vsurf_W6>
12.375

>  <vsurf_W7>
0.625

>  <vsurf_W8>
0

>  <vsurf_Wp1>
1071.13

>  <vsurf_Wp2>
457.75

>  <vsurf_Wp3>
85.125

>  <vsurf_Wp4>
16.375

>  <vsurf_Wp5>
6

>  <vsurf_Wp6>
2

>  <vsurf_Wp7>
0

>  <vsurf_Wp8>
0

>  <dens>
1.1106

>  <glob>
0.0697552

>  <std_dim1>
4.53161

>  <std_dim2>
1.56328

>  <std_dim3>
1.19685

>  <vol>
342.5

>  <logP(o/w)>
0.963

$$$$
D8.cdx
  MOE2008           3D

 45 48  0  0  0  0  0  0  0  0999 V2000
   -6.9080   -3.1340   -0.2470 C   0  0  0  0  0  0  0  0  0  0  0  0
   -7.7710   -2.9400   -0.8770 H   0  0  0  0  0  0  0  0  0  0  0  0
   -7.0630   -3.3000    1.1250 C   0  0  0  0  0  0  0  0  0  0  0  0
   -8.0550   -3.2350    1.5670 H   0  0  0  0  0  0  0  0  0  0  0  0
   -5.9600   -3.5510    1.9440 C   0  0  0  0  0  0  0  0  0  0  0  0
   -6.0830   -3.6810    3.0150 H   0  0  0  0  0  0  0  0  0  0  0  0
   -4.6980   -3.6330    1.3390 C   0  0  0  0  0  0  0  0  0  0  0  0
   -4.5010   -3.4710   -0.0370 C   0  0  0  0  0  0  0  0  0  0  0  0
   -5.6410   -3.2160   -0.8310 C   0  0  0  0  0  0  0  0  0  0  0  0
   -3.4680   -3.8730    1.9020 N   0  0  0  0  0  0  0  0  0  0  0  0
   -3.3080   -4.0290    2.8890 H   0  0  0  0  0  0  0  0  0  0  0  0
   -2.4990   -3.8700    0.9370 C   0  0  0  0  0  0  0  0  0  0  0  0
   -1.4650   -4.0480    1.2090 H   0  0  0  0  0  0  0  0  0  0  0  0
   -3.0950   -3.6230   -0.2880 C   0  0  0  0  0  0  0  0  0  0  0  0
   -2.3820   -3.5420   -1.5590 C   0  0  0  0  0  0  0  0  0  0  0  0
   -0.8970   -3.8530   -1.6050 C   0  0  0  0  0  0  0  0  0  0  0  0
   -0.0170   -2.7750   -1.5800 N   0  0  0  0  0  0  0  0  0  0  0  0
    1.4270   -3.0210   -1.6230 C   0  0  0  0  0  0  0  0  0  0  0  0
    1.6450   -4.0920   -1.5760 H   0  0  0  0  0  0  0  0  0  0  0  0
    1.7830   -2.6500   -2.5920 H   0  0  0  0  0  0  0  0  0  0  0  0
    2.1440   -2.2900   -0.4830 C   0  0  0  0  0  0  0  0  0  0  0  0
    3.2230   -2.4330   -0.5580 H   0  0  0  0  0  0  0  0  0  0  0  0
    1.8320   -2.7110    0.4810 H   0  0  0  0  0  0  0  0  0  0  0  0
    1.7710   -0.8660   -0.4550 N   0  0  0  0  0  0  0  0  0  0  0  0
    0.3260   -0.6180   -0.4020 C   0  0  0  0  0  0  0  0  0  0  0  0
   -0.0220   -0.9800    0.5730 H   0  0  0  0  0  0  0  0  0  0  0  0
    0.1040    0.4530   -0.4570 H   0  0  0  0  0  0  0  0  0  0  0  0
   -0.4090   -1.3580   -1.5290 C   0  0  0  0  0  0  0  0  0  0  0  0
   -0.1390   -0.9240   -2.4990 H   0  0  0  0  0  0  0  0  0  0  0  0
   -1.4880   -1.2420   -1.4030 H   0  0  0  0  0  0  0  0  0  0  0  0
    2.6450    0.2160   -0.4400 C   0  0  0  0  0  0  0  0  0  0  0  0
    4.0840   -0.0310   -0.6290 C   0  0  0  0  0  0  0  0  0  0  0  0
    4.5670   -0.4850   -1.8480 C   0  0  0  0  0  0  0  0  0  0  0  0
    3.9050   -0.6840   -2.6850 H   0  0  0  0  0  0  0  0  0  0  0  0
    5.8780   -0.7130   -2.0890 N   0  0  0  0  0  0  0  0  0  0  0  0
    6.7350   -0.4450   -1.0760 C   0  0  0  0  0  0  0  0  0  0  0  0
    7.7820   -0.6300   -1.2970 H   0  0  0  0  0  0  0  0  0  0  0  0
    6.3440    0.0400    0.1650 C   0  0  0  0  0  0  0  0  0  0  0  0
    7.0800    0.2480    0.9350 H   0  0  0  0  0  0  0  0  0  0  0  0
    4.9880    0.2570    0.3900 C   0  0  0  0  0  0  0  0  0  0  0  0
    4.6450    0.6470    1.3440 H   0  0  0  0  0  0  0  0  0  0  0  0
   -2.9100   -3.2260   -2.6200 O   0  0  0  0  0  0  0  0  0  0  0  0
   -0.5700   -5.0340   -1.6420 O   0  0  0  0  0  0  0  0  0  0  0  0
    2.3020    1.3830   -0.2820 O   0  0  0  0  0  0  0  0  0  0  0  0
   -5.5530   -3.0500   -2.1580 F   0  0  0  0  0  0  0  0  0  0  0  0
  1  2  1  0  0  0  0
  1  3  1  0  0  0  0
  1  9  2  0  0  0  0
  3  4  1  0  0  0  0
  3  5  2  0  0  0  0
  5  6  1  0  0  0  0
  5  7  1  0  0  0  0
  7  8  2  0  0  0  0
  7 10  1  0  0  0  0
  8  9  1  0  0  0  0
  8 14  1  0  0  0  0
  9 45  1  0  0  0  0
 10 11  1  0  0  0  0
 10 12  1  0  0  0  0
 12 13  1  0  0  0  0
 12 14  2  0  0  0  0
 14 15  1  0  0  0  0
 15 16  1  0  0  0  0
 15 42  2  0  0  0  0
 16 17  1  0  0  0  0
 16 43  2  0  0  0  0
 17 18  1  0  0  0  0
 17 28  1  0  0  0  0
 18 19  1  0  0  0  0
 18 20  1  0  0  0  0
 18 21  1  0  0  0  0
 21 22  1  0  0  0  0
 21 23  1  0  0  0  0
 21 24  1  0  0  0  0
 24 25  1  0  0  0  0
 24 31  1  0  0  0  0
 25 26  1  0  0  0  0
 25 27  1  0  0  0  0
 25 28  1  0  0  0  0
 28 29  1  0  0  0  0
 28 30  1  0  0  0  0
 31 32  1  0  0  0  0
 31 44  2  0  0  0  0
 32 33  1  0  0  0  0
 32 40  2  0  0  0  0
 33 34  1  0  0  0  0
 33 35  2  0  0  0  0
 35 36  1  0  0  0  0
 36 37  1  0  0  0  0
 36 38  2  0  0  0  0
 38 39  1  0  0  0  0
 38 40  1  0  0  0  0
 40 41  1  0  0  0  0
M  END
>  <Activity>
6.8124

>  <AM1_dipole>
7.20111

>  <AM1_E>
-116832

>  <AM1_Eele>
-842092

>  <AM1_HF>
-27.8742

>  <AM1_HOMO>
-8.90828

>  <AM1_IP>
8.90828

>  <AM1_LUMO>
-0.66307

>  <diameter>
15

>  <petitjean>
0.466667

>  <petitjeanSC>
0.875

>  <radius>
8

>  <VDistEq>
3.66276

>  <VDistMa>
9.29304

>  <weinerPath>
2210

>  <weinerPol>
47

>  <BCUT_PEOE_0>
-2.71157

>  <BCUT_PEOE_1>
-0.597887

>  <BCUT_PEOE_2>
0.647324

>  <BCUT_PEOE_3>
2.65051

>  <BCUT_SLOGP_0>
-2.86003

>  <BCUT_SLOGP_1>
-0.521887

>  <BCUT_SLOGP_2>
0.749331

>  <BCUT_SLOGP_3>
2.50229

>  <BCUT_SMR_0>
-2.43199

>  <BCUT_SMR_1>
-0.438001

>  <BCUT_SMR_2>
0.800614

>  <BCUT_SMR_3>
2.92003

>  <GCUT_PEOE_0>
-0.859949

>  <GCUT_PEOE_1>
-0.425793

>  <GCUT_PEOE_2>
0.0813942

>  <GCUT_PEOE_3>
2.64132

>  <GCUT_SLOGP_0>
-0.97649

>  <GCUT_SLOGP_1>
-0.3413

>  <GCUT_SLOGP_2>
0.183356

>  <GCUT_SLOGP_3>
2.61013

>  <GCUT_SMR_0>
-0.508915

>  <GCUT_SMR_1>
-0.214494

>  <GCUT_SMR_2>
0.198055

>  <GCUT_SMR_3>
2.90772

>  <a_aro>
15

>  <a_count>
45

>  <a_IC>
78.4531

>  <a_ICM>
1.7434

>  <a_nH>
17

>  <b_1rotN>
5

>  <b_1rotR>
0.16129

>  <b_ar>
16

>  <b_count>
48

>  <b_double>
3

>  <b_rotN>
5

>  <b_rotR>
0.16129

>  <b_single>
29

>  <b_triple>
0

>  <chi0v>
14.8916

>  <chi0v_C>
11.4472

>  <chi1v>
8.84526

>  <chi1v_C>
5.27671

>  <chiral>
0

>  <chiral_u>
0

>  <nmol>
1

>  <reactive>
0

>  <rings>
4

>  <Weight>
380.379

>  <a_heavy>
28

>  <a_nB>
0

>  <a_nBr>
0

>  <a_nC>
20

>  <a_nCl>
0

>  <a_nF>
1

>  <a_nI>
0

>  <a_nN>
4

>  <a_nO>
3

>  <a_nP>
0

>  <a_nS>
0

>  <b_heavy>
31

>  <chi0>
19.673

>  <chi0_C>
13.1041

>  <chi1>
13.5586

>  <chi1_C>
7.04124

>  <FCharge>
0

>  <VAdjEq>
0.398935

>  <VAdjMa>
5.9542

>  <zagreb>
150

>  <balabanJ>
1.29268

>  <PEOE_PC+>
2.5167

>  <PEOE_PC->
-2.5167

>  <PEOE_RPC+>
0.117257

>  <PEOE_RPC->
0.142994

>  <PEOE_VSA+0>
111.915

>  <PEOE_VSA+1>
72.6633

>  <PEOE_VSA+2>
9.02085

>  <PEOE_VSA+3>
8.61901

>  <PEOE_VSA+4>
0

>  <PEOE_VSA+5>
34.3576

>  <PEOE_VSA+6>
0

>  <PEOE_VSA-0>
49.0196

>  <PEOE_VSA-1>
12.2549

>  <PEOE_VSA-2>
0

>  <PEOE_VSA-3>
0

>  <PEOE_VSA-4>
11.9086

>  <PEOE_VSA-5>
46.3833

>  <PEOE_VSA-6>
0.136891

>  <PEOE_VSA_FHYD>
0.739568

>  <PEOE_VSA_FNEG>
0.335982

>  <PEOE_VSA_FPNEG>
0.163997

>  <PEOE_VSA_FPOL>
0.260432

>  <PEOE_VSA_FPOS>
0.664018

>  <PEOE_VSA_FPPOS>
0.0964344

>  <PEOE_VSA_HYD>
263.493

>  <PEOE_VSA_NEG>
119.703

>  <PEOE_VSA_PNEG>
58.4289

>  <PEOE_VSA_POL>
92.7864

>  <PEOE_VSA_POS>
236.576

>  <PEOE_VSA_PPOS>
34.3576

>  <PC+>
5.129

>  <PC->
-5.13

>  <Q_PC+>
5.129

>  <Q_PC->
-5.13

>  <Q_RPC+>
0.1279

>  <Q_RPC->
0.128655

>  <Q_VSA_FHYD>
0.554071

>  <Q_VSA_FNEG>
0.407603

>  <Q_VSA_FPNEG>
0.17719

>  <Q_VSA_FPOL>
0.445929

>  <Q_VSA_FPOS>
0.592397

>  <Q_VSA_FPPOS>
0.268738

>  <Q_VSA_HYD>
197.404

>  <Q_VSA_NEG>
145.221

>  <Q_VSA_PNEG>
63.1293

>  <Q_VSA_POL>
158.875

>  <Q_VSA_POS>
211.059

>  <Q_VSA_PPOS>
95.7459

>  <RPC+>
0.1279

>  <RPC->
0.128655

>  <lip_acc>
7

>  <lip_don>
1

>  <lip_druglike>
1

>  <lip_violation>
0

>  <opr_brigid>
22

>  <opr_leadlike>
1

>  <opr_nring>
4

>  <opr_nrot>
5

>  <opr_violation>
0

>  <E>
93.3442

>  <E_ang>
8.73544

>  <E_ele>
32.0483

>  <E_nb>
76.3022

>  <E_oop>
0.0615912

>  <E_sol>
-19.9137

>  <E_stb>
0.625868

>  <E_str>
5.38228

>  <E_strain>
0.00400409

>  <E_tor>
2.23679

>  <E_vdw>
44.2539

>  <E_rele>
0

>  <E_rnb>
5.68434e-014

>  <E_rsol>
5.68434e-014

>  <E_rvdw>
0

>  <Kier1>
21.2404

>  <Kier2>
9.42769

>  <Kier3>
4.54179

>  <KierA1>
14.3849

>  <KierA2>
6.28438

>  <KierA3>
2.99344

>  <KierFlex>
3.22857

>  <logS>
-3.06643

>  <MNDO_dipole>
7.38962

>  <MNDO_E>
-116918

>  <MNDO_Eele>
-831941

>  <MNDO_HF>
-29.7792

>  <MNDO_HOMO>
-8.92022

>  <MNDO_IP>
8.92022

>  <MNDO_LUMO>
-0.70151

>  <apol>
53.8985

>  <bpol>
28.6015

>  <mr>
10.1801

>  <dipole>
1.8751

>  <dipoleX>
0.392267

>  <dipoleY>
-0.118076

>  <dipoleZ>
1.82981

>  <pmi>
8164.64

>  <pmiX>
6460.67

>  <pmiY>
1103.24

>  <pmiZ>
600.728

>  <rgyr>
4.63298

>  <a_acc>
4

>  <a_acid>
0

>  <a_base>
0

>  <a_don>
1

>  <a_hyd>
18

>  <vsa_acc>
46.3833

>  <vsa_acid>
0

>  <vsa_base>
0

>  <vsa_don>
5.68258

>  <vsa_hyd>
255.394

>  <vsa_other>
34.3576

>  <vsa_pol>
52.0659

>  <PM3_dipole>
7.59186

>  <PM3_E>
-106092

>  <PM3_Eele>
-830882

>  <PM3_HF>
-67.5231

>  <PM3_HOMO>
-8.95499

>  <PM3_IP>
8.95499

>  <PM3_LUMO>
-0.75308

>  <SlogP>
1.8693

>  <SlogP_VSA0>
0

>  <SlogP_VSA1>
39.2393

>  <SlogP_VSA2>
49.7688

>  <SlogP_VSA3>
73.7583

>  <SlogP_VSA4>
54.0956

>  <SlogP_VSA5>
0

>  <SlogP_VSA6>
0

>  <SlogP_VSA7>
144.576

>  <SlogP_VSA8>
0

>  <SlogP_VSA9>
14.9601

>  <SMR>
9.93077

>  <SMR_VSA0>
71.5866

>  <SMR_VSA1>
37.9943

>  <SMR_VSA2>
25.9065

>  <SMR_VSA3>
6.37115

>  <SMR_VSA4>
4.7171

>  <SMR_VSA5>
139.859

>  <SMR_VSA6>
89.9635

>  <SMR_VSA7>
0

>  <ASA>
606.504

>  <ASA+>
272.207

>  <ASA->
235.218

>  <ASA_H>
428.798

>  <ASA_P>
177.707

>  <CASA+>
1396.15

>  <CASA->
1206.67

>  <DASA>
36.989

>  <DCASA>
189.481

>  <FASA+>
0.448813

>  <FASA->
0.387826

>  <FASA_H>
0.706998

>  <FASA_P>
0.293002

>  <FCASA+>
2.30196

>  <FCASA->
1.98955

>  <VSA>
374.62

>  <TPSA>
86.37

>  <density>
0.792938

>  <vdw_area>
356.279

>  <vdw_vol>
479.709

>  <vsurf_A>
3.0263

>  <vsurf_CP>
0.0832592

>  <vsurf_CW1>
2.74338

>  <vsurf_CW2>
2.31002

>  <vsurf_CW3>
1.57553

>  <vsurf_CW4>
0.773398

>  <vsurf_CW5>
0.329343

>  <vsurf_CW6>
0.0939097

>  <vsurf_CW7>
0.0051835

>  <vsurf_CW8>
0

>  <vsurf_D1>
774.75

>  <vsurf_D2>
454.75

>  <vsurf_D3>
337.75

>  <vsurf_D4>
282.125

>  <vsurf_D5>
241.25

>  <vsurf_D6>
201.375

>  <vsurf_D7>
116.25

>  <vsurf_D8>
65.625

>  <vsurf_DD12>
0.707107

>  <vsurf_DD13>
0.5

>  <vsurf_DD23>
0.866025

>  <vsurf_DW12>
5.67891

>  <vsurf_DW13>
0.866025

>  <vsurf_DW23>
5.24404

>  <vsurf_EDmin1>
-2.77358

>  <vsurf_EDmin2>
-2.73093

>  <vsurf_EDmin3>
-2.64302

>  <vsurf_EWmin1>
-5.28249

>  <vsurf_EWmin2>
-5.24044

>  <vsurf_EWmin3>
-5.20841

>  <vsurf_G>
1.33336

>  <vsurf_HB1>
384.125

>  <vsurf_HB2>
472.25

>  <vsurf_HB3>
399.25

>  <vsurf_HB4>
151.375

>  <vsurf_HB5>
51.625

>  <vsurf_HB6>
12.625

>  <vsurf_HB7>
1.25

>  <vsurf_HB8>
0

>  <vsurf_HL1>
0.170984

>  <vsurf_HL2>
0.0505095

>  <vsurf_ID1>
1.06508

>  <vsurf_ID2>
1.09402

>  <vsurf_ID3>
1.16646

>  <vsurf_ID4>
1.31158

>  <vsurf_ID5>
1.42128

>  <vsurf_ID6>
1.52076

>  <vsurf_ID7>
1.30106

>  <vsurf_ID8>
1.37401

>  <vsurf_IW1>
0.468174

>  <vsurf_IW2>
0.81323

>  <vsurf_IW3>
1.2179

>  <vsurf_IW4>
1.66125

>  <vsurf_IW5>
2.05281

>  <vsurf_IW6>
2.70034

>  <vsurf_IW7>
2.98479

>  <vsurf_IW8>
0

>  <vsurf_R>
1.43682

>  <vsurf_S>
553.48

>  <vsurf_V>
795.25

>  <vsurf_W1>
1429.63

>  <vsurf_W2>
907.75

>  <vsurf_W3>
481.125

>  <vsurf_W4>
168.25

>  <vsurf_W5>
57.75

>  <vsurf_W6>
14.25

>  <vsurf_W7>
1.25

>  <vsurf_W8>
0

>  <vsurf_Wp1>
1045.5

>  <vsurf_Wp2>
435.5

>  <vsurf_Wp3>
81.875

>  <vsurf_Wp4>
16.875

>  <vsurf_Wp5>
6.125

>  <vsurf_Wp6>
1.625

>  <vsurf_Wp7>
0

>  <vsurf_Wp8>
0

>  <dens>
1.10696

>  <glob>
0.0628599

>  <std_dim1>
4.47997

>  <std_dim2>
1.38852

>  <std_dim3>
1.12321

>  <vol>
343.625

>  <logP(o/w)>
1.001

$$$$
D8.cdx
  MOE2008           3D

 45 48  0  0  0  0  0  0  0  0999 V2000
   -6.4790   -5.4280    0.6890 C   0  0  0  0  0  0  0  0  0  0  0  0
   -7.1380   -4.6770    1.1160 H   0  0  0  0  0  0  0  0  0  0  0  0
   -6.9800   -6.3920   -0.1780 C   0  0  0  0  0  0  0  0  0  0  0  0
   -8.0380   -6.3930   -0.4290 H   0  0  0  0  0  0  0  0  0  0  0  0
   -6.1420   -7.3640   -0.7300 C   0  0  0  0  0  0  0  0  0  0  0  0
   -6.5380   -8.1170   -1.4050 H   0  0  0  0  0  0  0  0  0  0  0  0
   -4.7840   -7.3320   -0.3830 C   0  0  0  0  0  0  0  0  0  0  0  0
   -4.2420   -6.3790    0.4860 C   0  0  0  0  0  0  0  0  0  0  0  0
   -5.1220   -5.4140    1.0240 C   0  0  0  0  0  0  0  0  0  0  0  0
   -3.7590   -8.1580   -0.7750 N   0  0  0  0  0  0  0  0  0  0  0  0
   -3.8620   -8.9440   -1.4030 H   0  0  0  0  0  0  0  0  0  0  0  0
   -2.5870   -7.7630   -0.1920 C   0  0  0  0  0  0  0  0  0  0  0  0
   -1.6740   -8.3110   -0.3910 H   0  0  0  0  0  0  0  0  0  0  0  0
   -2.8380   -6.6600    0.6060 C   0  0  0  0  0  0  0  0  0  0  0  0
   -1.8320   -5.9560    1.3930 C   0  0  0  0  0  0  0  0  0  0  0  0
   -0.3930   -6.4380    1.3800 C   0  0  0  0  0  0  0  0  0  0  0  0
    0.5140   -5.7110    0.6150 N   0  0  0  0  0  0  0  0  0  0  0  0
    1.9210   -6.1080    0.5810 C   0  0  0  0  0  0  0  0  0  0  0  0
    2.1080   -6.9550    1.2480 H   0  0  0  0  0  0  0  0  0  0  0  0
    2.1330   -6.4380   -0.4430 H   0  0  0  0  0  0  0  0  0  0  0  0
    2.8390   -4.9350    0.9550 C   0  0  0  0  0  0  0  0  0  0  0  0
    3.8760   -5.2390    0.7980 H   0  0  0  0  0  0  0  0  0  0  0  0
    2.7120   -4.6790    2.0130 H   0  0  0  0  0  0  0  0  0  0  0  0
    2.5080   -3.7240    0.1830 N   0  0  0  0  0  0  0  0  0  0  0  0
    1.0880   -3.3480    0.1960 C   0  0  0  0  0  0  0  0  0  0  0  0
    0.8590   -3.0280    1.2200 H   0  0  0  0  0  0  0  0  0  0  0  0
    0.8960   -2.4980   -0.4660 H   0  0  0  0  0  0  0  0  0  0  0  0
    0.1910   -4.5270   -0.1940 C   0  0  0  0  0  0  0  0  0  0  0  0
    0.3660   -4.8030   -1.2410 H   0  0  0  0  0  0  0  0  0  0  0  0
   -0.8600   -4.2440   -0.1020 H   0  0  0  0  0  0  0  0  0  0  0  0
    3.4070   -2.9390   -0.5340 C   0  0  0  0  0  0  0  0  0  0  0  0
    4.8570   -3.1740   -0.3650 C   0  0  0  0  0  0  0  0  0  0  0  0
    5.4540   -3.0320    0.8870 C   0  0  0  0  0  0  0  0  0  0  0  0
    4.8780   -2.7720    1.7680 H   0  0  0  0  0  0  0  0  0  0  0  0
    6.8210   -3.2240    0.9640 C   0  0  0  0  0  0  0  0  0  0  0  0
    7.3470   -3.1330    1.9100 H   0  0  0  0  0  0  0  0  0  0  0  0
    7.6000   -3.5260   -0.0980 N   0  0  0  0  0  0  0  0  0  0  0  0
    6.9880   -3.6300   -1.3000 C   0  0  0  0  0  0  0  0  0  0  0  0
    7.6460   -3.8560   -2.1340 H   0  0  0  0  0  0  0  0  0  0  0  0
    5.6290   -3.4580   -1.4880 C   0  0  0  0  0  0  0  0  0  0  0  0
    5.1860   -3.5380   -2.4750 H   0  0  0  0  0  0  0  0  0  0  0  0
   -2.0630   -4.9630    2.0760 O   0  0  0  0  0  0  0  0  0  0  0  0
   -0.1270   -7.4350    2.0420 O   0  0  0  0  0  0  0  0  0  0  0  0
    3.0800   -2.0440   -1.3070 O   0  0  0  0  0  0  0  0  0  0  0  0
   -4.6960   -4.4600    1.8640 F   0  0  0  0  0  0  0  0  0  0  0  0
  1  2  1  0  0  0  0
  1  3  1  0  0  0  0
  1  9  2  0  0  0  0
  3  4  1  0  0  0  0
  3  5  2  0  0  0  0
  5  6  1  0  0  0  0
  5  7  1  0  0  0  0
  7  8  2  0  0  0  0
  7 10  1  0  0  0  0
  8  9  1  0  0  0  0
  8 14  1  0  0  0  0
  9 45  1  0  0  0  0
 10 11  1  0  0  0  0
 10 12  1  0  0  0  0
 12 13  1  0  0  0  0
 12 14  2  0  0  0  0
 14 15  1  0  0  0  0
 15 16  1  0  0  0  0
 15 42  2  0  0  0  0
 16 17  1  0  0  0  0
 16 43  2  0  0  0  0
 17 18  1  0  0  0  0
 17 28  1  0  0  0  0
 18 19  1  0  0  0  0
 18 20  1  0  0  0  0
 18 21  1  0  0  0  0
 21 22  1  0  0  0  0
 21 23  1  0  0  0  0
 21 24  1  0  0  0  0
 24 25  1  0  0  0  0
 24 31  1  0  0  0  0
 25 26  1  0  0  0  0
 25 27  1  0  0  0  0
 25 28  1  0  0  0  0
 28 29  1  0  0  0  0
 28 30  1  0  0  0  0
 31 32  1  0  0  0  0
 31 44  2  0  0  0  0
 32 33  1  0  0  0  0
 32 40  2  0  0  0  0
 33 34  1  0  0  0  0
 33 35  2  0  0  0  0
 35 36  1  0  0  0  0
 35 37  1  0  0  0  0
 37 38  2  0  0  0  0
 38 39  1  0  0  0  0
 38 40  1  0  0  0  0
 40 41  1  0  0  0  0
M  END
>  <Activity>
7.6252

>  <AM1_dipole>
6.04128

>  <AM1_E>
-116832

>  <AM1_Eele>
-839084

>  <AM1_HF>
-7.54291

>  <AM1_HOMO>
-8.90856

>  <AM1_IP>
8.90856

>  <AM1_LUMO>
-0.67015

>  <diameter>
15

>  <petitjean>
0.466667

>  <petitjeanSC>
0.875

>  <radius>
8

>  <VDistEq>
3.66276

>  <VDistMa>
9.29304

>  <weinerPath>
2210

>  <weinerPol>
47

>  <BCUT_PEOE_0>
-2.71175

>  <BCUT_PEOE_1>
-0.627722

>  <BCUT_PEOE_2>
0.671042

>  <BCUT_PEOE_3>
2.65035

>  <BCUT_SLOGP_0>
-2.86002

>  <BCUT_SLOGP_1>
-0.554632

>  <BCUT_SLOGP_2>
0.785648

>  <BCUT_SLOGP_3>
2.50258

>  <BCUT_SMR_0>
-2.43201

>  <BCUT_SMR_1>
-0.455412

>  <BCUT_SMR_2>
0.835424

>  <BCUT_SMR_3>
2.92013

>  <GCUT_PEOE_0>
-0.859949

>  <GCUT_PEOE_1>
-0.425796

>  <GCUT_PEOE_2>
0.0904447

>  <GCUT_PEOE_3>
2.64358

>  <GCUT_SLOGP_0>
-0.976489

>  <GCUT_SLOGP_1>
-0.341429

>  <GCUT_SLOGP_2>
0.192236

>  <GCUT_SLOGP_3>
2.61315

>  <GCUT_SMR_0>
-0.508913

>  <GCUT_SMR_1>
-0.225055

>  <GCUT_SMR_2>
0.209308

>  <GCUT_SMR_3>
2.91009

>  <a_aro>
15

>  <a_count>
45

>  <a_IC>
78.4531

>  <a_ICM>
1.7434

>  <a_nH>
17

>  <b_1rotN>
5

>  <b_1rotR>
0.16129

>  <b_ar>
16

>  <b_count>
48

>  <b_double>
3

>  <b_rotN>
5

>  <b_rotR>
0.16129

>  <b_single>
29

>  <b_triple>
0

>  <chi0v>
14.8916

>  <chi0v_C>
11.4472

>  <chi1v>
8.84526

>  <chi1v_C>
5.27671

>  <chiral>
0

>  <chiral_u>
0

>  <nmol>
1

>  <reactive>
0

>  <rings>
4

>  <Weight>
380.379

>  <a_heavy>
28

>  <a_nB>
0

>  <a_nBr>
0

>  <a_nC>
20

>  <a_nCl>
0

>  <a_nF>
1

>  <a_nI>
0

>  <a_nN>
4

>  <a_nO>
3

>  <a_nP>
0

>  <a_nS>
0

>  <b_heavy>
31

>  <chi0>
19.673

>  <chi0_C>
13.1041

>  <chi1>
13.5586

>  <chi1_C>
7.04124

>  <FCharge>
0

>  <VAdjEq>
0.398935

>  <VAdjMa>
5.9542

>  <zagreb>
150

>  <balabanJ>
1.29268

>  <PEOE_PC+>
2.49065

>  <PEOE_PC->
-2.49065

>  <PEOE_RPC+>
0.118484

>  <PEOE_RPC->
0.14449

>  <PEOE_VSA+0>
114.124

>  <PEOE_VSA+1>
70.4547

>  <PEOE_VSA+2>
9.02085

>  <PEOE_VSA+3>
8.61901

>  <PEOE_VSA+4>
0

>  <PEOE_VSA+5>
34.3576

>  <PEOE_VSA+6>
0

>  <PEOE_VSA-0>
49.0196

>  <PEOE_VSA-1>
12.2549

>  <PEOE_VSA-2>
0

>  <PEOE_VSA-3>
0

>  <PEOE_VSA-4>
11.9086

>  <PEOE_VSA-5>
46.3833

>  <PEOE_VSA-6>
0.136891

>  <PEOE_VSA_FHYD>
0.739568

>  <PEOE_VSA_FNEG>
0.335982

>  <PEOE_VSA_FPNEG>
0.163997

>  <PEOE_VSA_FPOL>
0.260432

>  <PEOE_VSA_FPOS>
0.664018

>  <PEOE_VSA_FPPOS>
0.0964344

>  <PEOE_VSA_HYD>
263.493

>  <PEOE_VSA_NEG>
119.703

>  <PEOE_VSA_PNEG>
58.4289

>  <PEOE_VSA_POL>
92.7864

>  <PEOE_VSA_POS>
236.576

>  <PEOE_VSA_PPOS>
34.3576

>  <PC+>
5.129

>  <PC->
-5.13

>  <Q_PC+>
5.129

>  <Q_PC->
-5.13

>  <Q_RPC+>
0.1279

>  <Q_RPC->
0.128655

>  <Q_VSA_FHYD>
0.554071

>  <Q_VSA_FNEG>
0.407603

>  <Q_VSA_FPNEG>
0.17719

>  <Q_VSA_FPOL>
0.445929

>  <Q_VSA_FPOS>
0.592397

>  <Q_VSA_FPPOS>
0.268738

>  <Q_VSA_HYD>
197.404

>  <Q_VSA_NEG>
145.221

>  <Q_VSA_PNEG>
63.1293

>  <Q_VSA_POL>
158.875

>  <Q_VSA_POS>
211.059

>  <Q_VSA_PPOS>
95.7459

>  <RPC+>
0.1279

>  <RPC->
0.128655

>  <lip_acc>
7

>  <lip_don>
1

>  <lip_druglike>
1

>  <lip_violation>
0

>  <opr_brigid>
22

>  <opr_leadlike>
1

>  <opr_nring>
4

>  <opr_nrot>
5

>  <opr_violation>
0

>  <E>
88.0235

>  <E_ang>
8.54475

>  <E_ele>
26.5729

>  <E_nb>
71.8321

>  <E_oop>
0.0283975

>  <E_sol>
-25.5472

>  <E_stb>
0.635352

>  <E_str>
5.34475

>  <E_strain>
0.00400932

>  <E_tor>
1.63817

>  <E_vdw>
45.2592

>  <E_rele>
0

>  <E_rnb>
-2.84217e-014

>  <E_rsol>
-2.84217e-014

>  <E_rvdw>
0

>  <Kier1>
21.2404

>  <Kier2>
9.42769

>  <Kier3>
4.54179

>  <KierA1>
14.3849

>  <KierA2>
6.28438

>  <KierA3>
2.99344

>  <KierFlex>
3.22857

>  <logS>
-3.06643

>  <MNDO_dipole>
6.09697

>  <MNDO_E>
-116917

>  <MNDO_Eele>
-829158

>  <MNDO_HF>
-51.5145

>  <MNDO_HOMO>
-8.95634

>  <MNDO_IP>
8.95634

>  <MNDO_LUMO>
-0.70085

>  <apol>
53.8985

>  <bpol>
28.6015

>  <mr>
10.1801

>  <dipole>
1.42641

>  <dipoleX>
-0.338107

>  <dipoleY>
-1.069

>  <dipoleZ>
-0.881802

>  <pmi>
8671.57

>  <pmiX>
7143.36

>  <pmiY>
1123.55

>  <pmiZ>
404.655

>  <rgyr>
4.77464

>  <a_acc>
4

>  <a_acid>
0

>  <a_base>
0

>  <a_don>
1

>  <a_hyd>
18

>  <vsa_acc>
46.3833

>  <vsa_acid>
0

>  <vsa_base>
0

>  <vsa_don>
5.68258

>  <vsa_hyd>
255.394

>  <vsa_other>
34.3576

>  <vsa_pol>
52.0659

>  <PM3_dipole>
6.08803

>  <PM3_E>
-106092

>  <PM3_Eele>
-825375

>  <PM3_HF>
-68.185

>  <PM3_HOMO>
-8.94591

>  <PM3_IP>
8.94591

>  <PM3_LUMO>
-0.72438

>  <SlogP>
1.8693

>  <SlogP_VSA0>
0

>  <SlogP_VSA1>
39.2393

>  <SlogP_VSA2>
49.7688

>  <SlogP_VSA3>
73.7583

>  <SlogP_VSA4>
54.0956

>  <SlogP_VSA5>
0

>  <SlogP_VSA6>
0

>  <SlogP_VSA7>
144.576

>  <SlogP_VSA8>
0

>  <SlogP_VSA9>
14.9601

>  <SMR>
9.93077

>  <SMR_VSA0>
71.5866

>  <SMR_VSA1>
37.9943

>  <SMR_VSA2>
25.9065

>  <SMR_VSA3>
6.37115

>  <SMR_VSA4>
4.7171

>  <SMR_VSA5>
139.859

>  <SMR_VSA6>
89.9635

>  <SMR_VSA7>
0

>  <ASA>
617.251

>  <ASA+>
284.523

>  <ASA->
223.79

>  <ASA_H>
447.746

>  <ASA_P>
169.506

>  <CASA+>
1459.32

>  <CASA->
1148.04

>  <DASA>
60.7339

>  <DCASA>
311.28

>  <FASA+>
0.460952

>  <FASA->
0.362558

>  <FASA_H>
0.725386

>  <FASA_P>
0.274614

>  <FCASA+>
2.36423

>  <FCASA->
1.85992

>  <VSA>
375.819

>  <TPSA>
86.37

>  <density>
0.792938

>  <vdw_area>
356.279

>  <vdw_vol>
479.709

>  <vsurf_A>
2.48646

>  <vsurf_CP>
0.0919598

>  <vsurf_CW1>
2.74221

>  <vsurf_CW2>
2.35981

>  <vsurf_CW3>
1.53592

>  <vsurf_CW4>
0.7388

>  <vsurf_CW5>
0.31295

>  <vsurf_CW6>
0.0877091

>  <vsurf_CW7>
0.0054005

>  <vsurf_CW8>
0

>  <vsurf_D1>
810.75

>  <vsurf_D2>
472

>  <vsurf_D3>
347.875

>  <vsurf_D4>
288.625

>  <vsurf_D5>
246.75

>  <vsurf_D6>
201.625

>  <vsurf_D7>
130

>  <vsurf_D8>
71

>  <vsurf_DD12>
5.24404

>  <vsurf_DD13>
5.87367

>  <vsurf_DD23>
0.707107

>  <vsurf_DW12>
5.40833

>  <vsurf_DW13>
5.74456

>  <vsurf_DW23>
0.5

>  <vsurf_EDmin1>
-2.68454

>  <vsurf_EDmin2>
-2.53754

>  <vsurf_EDmin3>
-2.52284

>  <vsurf_EWmin1>
-5.78966

>  <vsurf_EWmin2>
-5.37357

>  <vsurf_EWmin3>
-5.36779

>  <vsurf_G>
1.34537

>  <vsurf_HB1>
374.625

>  <vsurf_HB2>
462.625

>  <vsurf_HB3>
383.5

>  <vsurf_HB4>
145.875

>  <vsurf_HB5>
47.625

>  <vsurf_HB6>
11.5

>  <vsurf_HB7>
1.125

>  <vsurf_HB8>
0

>  <vsurf_HL1>
0.155587

>  <vsurf_HL2>
0.0450411

>  <vsurf_ID1>
0.597782

>  <vsurf_ID2>
0.663953

>  <vsurf_ID3>
0.741453

>  <vsurf_ID4>
0.788287

>  <vsurf_ID5>
0.799801

>  <vsurf_ID6>
0.839686

>  <vsurf_ID7>
0.854069

>  <vsurf_ID8>
1.15298

>  <vsurf_IW1>
0.677353

>  <vsurf_IW2>
0.960059

>  <vsurf_IW3>
1.0347

>  <vsurf_IW4>
1.30998

>  <vsurf_IW5>
2.06538

>  <vsurf_IW6>
2.5395

>  <vsurf_IW7>
2.56465

>  <vsurf_IW8>
0

>  <vsurf_R>
1.42571

>  <vsurf_S>
559.81

>  <vsurf_V>
798.125

>  <vsurf_W1>
1439.38

>  <vsurf_W2>
912.5

>  <vsurf_W3>
462.625

>  <vsurf_W4>
162.5

>  <vsurf_W5>
54.125

>  <vsurf_W6>
13

>  <vsurf_W7>
1.125

>  <vsurf_W8>
0

>  <vsurf_Wp1>
1064.75

>  <vsurf_Wp2>
449.875

>  <vsurf_Wp3>
79.125

>  <vsurf_Wp4>
16.625

>  <vsurf_Wp5>
6.5

>  <vsurf_Wp6>
1.5

>  <vsurf_Wp7>
0

>  <vsurf_Wp8>
0

>  <dens>
1.11263

>  <glob>
0.0585541

>  <std_dim1>
4.64882

>  <std_dim2>
1.34138

>  <std_dim3>
1.12492

>  <vol>
341.875

>  <logP(o/w)>
1.002

$$$$
D8.cdx
  MOE2008           3D

 43 46  0  0  0  0  0  0  0  0999 V2000
   -6.6550   -8.5780   -0.2490 C   0  0  0  0  0  0  0  0  0  0  0  0
   -7.4100   -7.8720    0.0840 H   0  0  0  0  0  0  0  0  0  0  0  0
   -6.9740   -9.5620   -1.1790 C   0  0  0  0  0  0  0  0  0  0  0  0
   -7.9860   -9.6220   -1.5720 H   0  0  0  0  0  0  0  0  0  0  0  0
   -6.0110  -10.4760   -1.6140 C   0  0  0  0  0  0  0  0  0  0  0  0
   -6.2650  -11.2440   -2.3380 H   0  0  0  0  0  0  0  0  0  0  0  0
   -4.7180  -10.3680   -1.0840 C   0  0  0  0  0  0  0  0  0  0  0  0
   -4.3580   -9.3930   -0.1470 C   0  0  0  0  0  0  0  0  0  0  0  0
   -5.3590   -8.4870    0.2680 C   0  0  0  0  0  0  0  0  0  0  0  0
   -3.6010  -11.1280   -1.3330 N   0  0  0  0  0  0  0  0  0  0  0  0
   -3.5710  -11.9130   -1.9700 H   0  0  0  0  0  0  0  0  0  0  0  0
   -2.5450  -10.6690   -0.5940 C   0  0  0  0  0  0  0  0  0  0  0  0
   -1.5820  -11.1590   -0.6680 H   0  0  0  0  0  0  0  0  0  0  0  0
   -2.9700   -9.5920    0.1650 C   0  0  0  0  0  0  0  0  0  0  0  0
   -2.1250   -8.8410    1.0880 C   0  0  0  0  0  0  0  0  0  0  0  0
   -0.6770   -9.2490    1.2780 C   0  0  0  0  0  0  0  0  0  0  0  0
    0.2890   -8.5100    0.6000 N   0  0  0  0  0  0  0  0  0  0  0  0
    1.7020   -8.8920    0.7180 C   0  0  0  0  0  0  0  0  0  0  0  0
    1.8330   -9.6870    1.4590 H   0  0  0  0  0  0  0  0  0  0  0  0
    2.0070   -9.2890   -0.2580 H   0  0  0  0  0  0  0  0  0  0  0  0
    2.5630   -7.6820    1.0910 C   0  0  0  0  0  0  0  0  0  0  0  0
    3.6170   -7.9490    1.1680 H   0  0  0  0  0  0  0  0  0  0  0  0
    2.2680   -7.3150    2.0830 H   0  0  0  0  0  0  0  0  0  0  0  0
    2.3210   -6.5780    0.1510 N   0  0  0  0  0  0  0  0  0  0  0  0
    0.9190   -6.1550    0.0880 C   0  0  0  0  0  0  0  0  0  0  0  0
    0.6530   -5.7580    1.0750 H   0  0  0  0  0  0  0  0  0  0  0  0
    0.7750   -5.3560   -0.6460 H   0  0  0  0  0  0  0  0  0  0  0  0
    0.0170   -7.3490   -0.2670 C   0  0  0  0  0  0  0  0  0  0  0  0
    0.2220   -7.6770   -1.2940 H   0  0  0  0  0  0  0  0  0  0  0  0
   -1.0310   -7.0470   -0.2230 H   0  0  0  0  0  0  0  0  0  0  0  0
    3.2770   -5.9360   -0.6430 C   0  0  0  0  0  0  0  0  0  0  0  0
    4.5640   -6.5740   -0.8450 C   0  0  0  0  0  0  0  0  0  0  0  0
   -2.5080   -7.8710    1.7350 O   0  0  0  0  0  0  0  0  0  0  0  0
   -0.4530  -10.2120    2.0030 O   0  0  0  0  0  0  0  0  0  0  0  0
    3.0270   -4.8550   -1.1790 O   0  0  0  0  0  0  0  0  0  0  0  0
   -5.1090   -7.5180    1.1600 F   0  0  0  0  0  0  0  0  0  0  0  0
    4.6630   -7.9400   -0.8770 O   0  0  0  0  0  0  0  0  0  0  0  0
    5.9590   -8.2460   -1.1420 C   0  0  0  0  0  0  0  0  0  0  0  0
    6.1900   -9.3010   -1.1870 H   0  0  0  0  0  0  0  0  0  0  0  0
    6.7000   -7.1010   -1.3080 C   0  0  0  0  0  0  0  0  0  0  0  0
    7.7550   -7.0500   -1.5400 H   0  0  0  0  0  0  0  0  0  0  0  0
    5.8000   -6.0230   -1.1360 C   0  0  0  0  0  0  0  0  0  0  0  0
    6.0140   -4.9660   -1.2140 H   0  0  0  0  0  0  0  0  0  0  0  0
  1  2  1  0  0  0  0
  1  3  1  0  0  0  0
  1  9  2  0  0  0  0
  3  4  1  0  0  0  0
  3  5  2  0  0  0  0
  5  6  1  0  0  0  0
  5  7  1  0  0  0  0
  7  8  2  0  0  0  0
  7 10  1  0  0  0  0
  8  9  1  0  0  0  0
  8 14  1  0  0  0  0
  9 36  1  0  0  0  0
 10 11  1  0  0  0  0
 10 12  1  0  0  0  0
 12 13  1  0  0  0  0
 12 14  2  0  0  0  0
 14 15  1  0  0  0  0
 15 16  1  0  0  0  0
 15 33  2  0  0  0  0
 16 17  1  0  0  0  0
 16 34  2  0  0  0  0
 17 18  1  0  0  0  0
 17 28  1  0  0  0  0
 18 19  1  0  0  0  0
 18 20  1  0  0  0  0
 18 21  1  0  0  0  0
 21 22  1  0  0  0  0
 21 23  1  0  0  0  0
 21 24  1  0  0  0  0
 24 25  1  0  0  0  0
 24 31  1  0  0  0  0
 25 26  1  0  0  0  0
 25 27  1  0  0  0  0
 25 28  1  0  0  0  0
 28 29  1  0  0  0  0
 28 30  1  0  0  0  0
 31 32  1  0  0  0  0
 31 35  2  0  0  0  0
 32 37  1  0  0  0  0
 32 42  2  0  0  0  0
 37 38  1  0  0  0  0
 38 39  1  0  0  0  0
 38 40  2  0  0  0  0
 40 41  1  0  0  0  0
 40 42  1  0  0  0  0
 42 43  1  0  0  0  0
M  END
>  <Activity>
8.2676

>  <AM1_dipole>
5.89055

>  <AM1_E>
-116156

>  <AM1_Eele>
-812298

>  <AM1_HF>
-29.0534

>  <AM1_HOMO>
-8.85685

>  <AM1_IP>
8.85685

>  <AM1_LUMO>
-0.59933

>  <diameter>
14

>  <petitjean>
0.5

>  <petitjeanSC>
1

>  <radius>
7

>  <VDistEq>
3.60077

>  <VDistMa>
9.1899

>  <weinerPath>
1979

>  <weinerPol>
44

>  <BCUT_PEOE_0>
-2.70941

>  <BCUT_PEOE_1>
-0.61132

>  <BCUT_PEOE_2>
0.645316

>  <BCUT_PEOE_3>
2.65251

>  <BCUT_SLOGP_0>
-2.85972

>  <BCUT_SLOGP_1>
-0.493592

>  <BCUT_SLOGP_2>
0.769407

>  <BCUT_SLOGP_3>
2.50223

>  <BCUT_SMR_0>
-2.43169

>  <BCUT_SMR_1>
-0.433382

>  <BCUT_SMR_2>
0.825087

>  <BCUT_SMR_3>
2.91948

>  <GCUT_PEOE_0>
-0.859949

>  <GCUT_PEOE_1>
-0.405397

>  <GCUT_PEOE_2>
0.0872691

>  <GCUT_PEOE_3>
2.62666

>  <GCUT_SLOGP_0>
-0.976485

>  <GCUT_SLOGP_1>
-0.336619

>  <GCUT_SLOGP_2>
0.201885

>  <GCUT_SLOGP_3>
2.59568

>  <GCUT_SMR_0>
-0.508912

>  <GCUT_SMR_1>
-0.204019

>  <GCUT_SMR_2>
0.24179

>  <GCUT_SMR_3>
2.88912

>  <a_aro>
14

>  <a_count>
43

>  <a_IC>
75.8639

>  <a_ICM>
1.76428

>  <a_nH>
16

>  <b_1rotN>
5

>  <b_1rotR>
0.166667

>  <b_ar>
15

>  <b_count>
46

>  <b_double>
3

>  <b_rotN>
5

>  <b_rotR>
0.166667

>  <b_single>
28

>  <b_triple>
0

>  <chi0v>
14.2753

>  <chi0v_C>
10.8699

>  <chi1v>
8.48001

>  <chi1v_C>
4.98803

>  <chiral>
0

>  <chiral_u>
0

>  <nmol>
1

>  <reactive>
0

>  <rings>
4

>  <Weight>
369.352

>  <a_heavy>
27

>  <a_nB>
0

>  <a_nBr>
0

>  <a_nC>
19

>  <a_nCl>
0

>  <a_nF>
1

>  <a_nI>
0

>  <a_nN>
3

>  <a_nO>
4

>  <a_nP>
0

>  <a_nS>
0

>  <b_heavy>
30

>  <chi0>
18.9659

>  <chi0_C>
12.397

>  <chi1>
13.0586

>  <chi1_C>
6.63299

>  <FCharge>
0

>  <VAdjEq>
0.410248

>  <VAdjMa>
5.90689

>  <zagreb>
146

>  <balabanJ>
1.30373

>  <PEOE_PC+>
2.65131

>  <PEOE_PC->
-2.65131

>  <PEOE_RPC+>
0.111304

>  <PEOE_RPC->
0.172782

>  <PEOE_VSA+0>
78.4233

>  <PEOE_VSA+1>
80.4288

>  <PEOE_VSA+2>
13.2862

>  <PEOE_VSA+3>
17.0775

>  <PEOE_VSA+4>
0

>  <PEOE_VSA+5>
34.3576

>  <PEOE_VSA+6>
0

>  <PEOE_VSA-0>
49.0196

>  <PEOE_VSA-1>
12.2549

>  <PEOE_VSA-2>
0

>  <PEOE_VSA-3>
0

>  <PEOE_VSA-4>
11.9086

>  <PEOE_VSA-5>
40.7008

>  <PEOE_VSA-6>
2.64065

>  <PEOE_VSA_FHYD>
0.736524

>  <PEOE_VSA_FNEG>
0.342621

>  <PEOE_VSA_FPNEG>
0.162453

>  <PEOE_VSA_FPOL>
0.263476

>  <PEOE_VSA_FPOS>
0.65738

>  <PEOE_VSA_FPPOS>
0.101023

>  <PEOE_VSA_HYD>
250.49

>  <PEOE_VSA_NEG>
116.525

>  <PEOE_VSA_PNEG>
55.25

>  <PEOE_VSA_POL>
89.6076

>  <PEOE_VSA_POS>
223.573

>  <PEOE_VSA_PPOS>
34.3576

>  <PC+>
4.799

>  <PC->
-4.8

>  <Q_PC+>
4.799

>  <Q_PC->
-4.8

>  <Q_RPC+>
0.148989

>  <Q_RPC->
0.1375

>  <Q_VSA_FHYD>
0.542202

>  <Q_VSA_FNEG>
0.47206

>  <Q_VSA_FPNEG>
0.176274

>  <Q_VSA_FPOL>
0.457798

>  <Q_VSA_FPOS>
0.52794

>  <Q_VSA_FPPOS>
0.281524

>  <Q_VSA_HYD>
184.402

>  <Q_VSA_NEG>
160.547

>  <Q_VSA_PNEG>
59.9504

>  <Q_VSA_POL>
155.696

>  <Q_VSA_POS>
179.551

>  <Q_VSA_PPOS>
95.7459

>  <RPC+>
0.148989

>  <RPC->
0.1375

>  <lip_acc>
7

>  <lip_don>
1

>  <lip_druglike>
1

>  <lip_violation>
0

>  <opr_brigid>
21

>  <opr_leadlike>
1

>  <opr_nring>
4

>  <opr_nrot>
5

>  <opr_violation>
0

>  <E>
78.2228

>  <E_ang>
8.90926

>  <E_ele>
33.2228

>  <E_nb>
65.9141

>  <E_oop>
0.0899034

>  <E_sol>
-18.8299

>  <E_stb>
-0.0945961

>  <E_str>
5.26919

>  <E_strain>
0.00372172

>  <E_tor>
-1.86505

>  <E_vdw>
32.6913

>  <E_rele>
0

>  <E_rnb>
2.84217e-014

>  <E_rsol>
2.84217e-014

>  <E_rvdw>
0

>  <Kier1>
20.28

>  <Kier2>
8.78853

>  <Kier3>
4.16

>  <KierA1>
14.0544

>  <KierA2>
5.99726

>  <KierA3>
2.80625

>  <KierFlex>
3.12178

>  <logS>
-4.07614

>  <MNDO_dipole>
6.24771

>  <MNDO_E>
-116285

>  <MNDO_Eele>
-804646

>  <MNDO_HF>
-90.6385

>  <MNDO_HOMO>
-8.91938

>  <MNDO_IP>
8.91938

>  <MNDO_LUMO>
-0.66738

>  <apol>
51.1737

>  <bpol>
28.1043

>  <mr>
9.64727

>  <dipole>
1.50031

>  <dipoleX>
0.397018

>  <dipoleY>
-0.991692

>  <dipoleZ>
-1.0535

>  <pmi>
7531.74

>  <pmiX>
6125.98

>  <pmiY>
987.905

>  <pmiZ>
417.857

>  <rgyr>
4.51573

>  <a_acc>
3

>  <a_acid>
0

>  <a_base>
0

>  <a_don>
1

>  <a_hyd>
15

>  <vsa_acc>
40.7008

>  <vsa_acid>
0

>  <vsa_base>
0

>  <vsa_don>
5.68258

>  <vsa_hyd>
212.586

>  <vsa_other>
67.3783

>  <vsa_pol>
46.3833

>  <PM3_dipole>
5.92432

>  <PM3_E>
-106020

>  <PM3_Eele>
-797635

>  <PM3_HF>
-100.296

>  <PM3_HOMO>
-8.9066

>  <PM3_IP>
8.9066

>  <PM3_LUMO>
-0.70062

>  <SlogP>
2.0673

>  <SlogP_VSA0>
0

>  <SlogP_VSA1>
22.4538

>  <SlogP_VSA2>
49.7688

>  <SlogP_VSA3>
73.7583

>  <SlogP_VSA4>
56.3588

>  <SlogP_VSA5>
9.50735

>  <SlogP_VSA6>
0

>  <SlogP_VSA7>
130.054

>  <SlogP_VSA8>
0

>  <SlogP_VSA9>
14.9601

>  <SMR>
9.37787

>  <SMR_VSA0>
81.094

>  <SMR_VSA1>
21.2087

>  <SMR_VSA2>
25.9065

>  <SMR_VSA3>
8.6344

>  <SMR_VSA4>
4.7171

>  <SMR_VSA5>
125.337

>  <SMR_VSA6>
89.9635

>  <SMR_VSA7>
0

>  <ASA>
597.618

>  <ASA+>
235.863

>  <ASA->
256.085

>  <ASA_H>
432.197

>  <ASA_P>
165.421

>  <CASA+>
1131.91

>  <CASA->
1229.21

>  <DASA>
20.2218

>  <DCASA>
97.3006

>  <FASA+>
0.394671

>  <FASA->
0.428509

>  <FASA_H>
0.723199

>  <FASA_P>
0.276801

>  <FCASA+>
1.89403

>  <FCASA->
2.05684

>  <VSA>
361.116

>  <TPSA>
86.62

>  <density>
0.809115

>  <vdw_area>
340.098

>  <vdw_vol>
456.489

>  <vsurf_A>
2.58728

>  <vsurf_CP>
0.111791

>  <vsurf_CW1>
2.68715

>  <vsurf_CW2>
2.1417

>  <vsurf_CW3>
1.41383

>  <vsurf_CW4>
0.678011

>  <vsurf_CW5>
0.261117

>  <vsurf_CW6>
0.065351

>  <vsurf_CW7>
0.00613326

>  <vsurf_CW8>
0

>  <vsurf_D1>
801.375

>  <vsurf_D2>
463.375

>  <vsurf_D3>
344

>  <vsurf_D4>
286.25

>  <vsurf_D5>
243.25

>  <vsurf_D6>
188.25

>  <vsurf_D7>
105.875

>  <vsurf_D8>
57.625

>  <vsurf_DD12>
0.707107

>  <vsurf_DD13>
0.5

>  <vsurf_DD23>
0.5

>  <vsurf_DW12>
5.40833

>  <vsurf_DW13>
0.707107

>  <vsurf_DW23>
5.02494

>  <vsurf_EDmin1>
-2.67788

>  <vsurf_EDmin2>
-2.5997

>  <vsurf_EDmin3>
-2.58127

>  <vsurf_EWmin1>
-5.69601

>  <vsurf_EWmin2>
-5.41461

>  <vsurf_EWmin3>
-5.33276

>  <vsurf_G>
1.33597

>  <vsurf_HB1>
301.375

>  <vsurf_HB2>
372.125

>  <vsurf_HB3>
334.125

>  <vsurf_HB4>
122.75

>  <vsurf_HB5>
36.5

>  <vsurf_HB6>
8.25

>  <vsurf_HB7>
1

>  <vsurf_HB8>
0

>  <vsurf_HL1>
0.12609

>  <vsurf_HL2>
0.0340611

>  <vsurf_ID1>
0.905768

>  <vsurf_ID2>
0.965055

>  <vsurf_ID3>
1.08847

>  <vsurf_ID4>
1.20719

>  <vsurf_ID5>
1.28552

>  <vsurf_ID6>
1.21039

>  <vsurf_ID7>
0.986484

>  <vsurf_ID8>
1.02104

>  <vsurf_IW1>
0.142939

>  <vsurf_IW2>
0.433178

>  <vsurf_IW3>
0.830991

>  <vsurf_IW4>
1.43805

>  <vsurf_IW5>
1.51745

>  <vsurf_IW6>
2.41533

>  <vsurf_IW7>
3.63968

>  <vsurf_IW8>
0

>  <vsurf_R>
1.41806

>  <vsurf_S>
542.29

>  <vsurf_V>
769

>  <vsurf_W1>
1313.75

>  <vsurf_W2>
790

>  <vsurf_W3>
410.375

>  <vsurf_W4>
139.125

>  <vsurf_W5>
43.375

>  <vsurf_W6>
9.75

>  <vsurf_W7>
1

>  <vsurf_W8>
0

>  <vsurf_Wp1>
1012.38

>  <vsurf_Wp2>
417.875

>  <vsurf_Wp3>
76.25

>  <vsurf_Wp4>
16.375

>  <vsurf_Wp5>
6.875

>  <vsurf_Wp6>
1.5

>  <vsurf_Wp7>
0

>  <vsurf_Wp8>
0

>  <dens>
1.1265

>  <glob>
0.061967

>  <std_dim1>
4.41392

>  <std_dim2>
1.46124

>  <std_dim3>
1.09876

>  <vol>
327.875

>  <logP(o/w)>
0.949

$$$$
D8.cdx
  MOE2008           3D

 43 46  0  0  0  0  0  0  0  0999 V2000
   -6.5000  -11.2490    0.5990 C   0  0  0  0  0  0  0  0  0  0  0  0
   -7.1150  -10.4850    1.0670 H   0  0  0  0  0  0  0  0  0  0  0  0
   -7.0670  -12.1690   -0.2760 C   0  0  0  0  0  0  0  0  0  0  0  0
   -8.1320  -12.1210   -0.4920 H   0  0  0  0  0  0  0  0  0  0  0  0
   -6.2860  -13.1560   -0.8830 C   0  0  0  0  0  0  0  0  0  0  0  0
   -6.7330  -13.8730   -1.5650 H   0  0  0  0  0  0  0  0  0  0  0  0
   -4.9180  -13.1870   -0.5800 C   0  0  0  0  0  0  0  0  0  0  0  0
   -4.3110  -12.2800    0.2960 C   0  0  0  0  0  0  0  0  0  0  0  0
   -5.1340  -11.2970    0.8890 C   0  0  0  0  0  0  0  0  0  0  0  0
   -3.9390  -14.0390   -1.0290 N   0  0  0  0  0  0  0  0  0  0  0  0
   -4.0920  -14.8010   -1.6760 H   0  0  0  0  0  0  0  0  0  0  0  0
   -2.7340  -13.7060   -0.4750 C   0  0  0  0  0  0  0  0  0  0  0  0
   -1.8490  -14.2820   -0.7190 H   0  0  0  0  0  0  0  0  0  0  0  0
   -2.9160  -12.6190    0.3620 C   0  0  0  0  0  0  0  0  0  0  0  0
   -1.8580  -11.9780    1.1370 C   0  0  0  0  0  0  0  0  0  0  0  0
   -0.4360  -12.5000    1.0490 C   0  0  0  0  0  0  0  0  0  0  0  0
    0.4710  -11.7530    0.3030 N   0  0  0  0  0  0  0  0  0  0  0  0
    1.8630  -12.1860    0.2040 C   0  0  0  0  0  0  0  0  0  0  0  0
    2.0450  -13.0760    0.8140 H   0  0  0  0  0  0  0  0  0  0  0  0
    2.0330  -12.4630   -0.8440 H   0  0  0  0  0  0  0  0  0  0  0  0
    2.8350  -11.0660    0.6110 C   0  0  0  0  0  0  0  0  0  0  0  0
    3.8450  -11.4020    0.3690 H   0  0  0  0  0  0  0  0  0  0  0  0
    2.7740  -10.8850    1.6900 H   0  0  0  0  0  0  0  0  0  0  0  0
    2.5130   -9.7910   -0.0550 N   0  0  0  0  0  0  0  0  0  0  0  0
    1.1010   -9.3900    0.0180 C   0  0  0  0  0  0  0  0  0  0  0  0
    0.9060   -9.1350    1.0660 H   0  0  0  0  0  0  0  0  0  0  0  0
    0.9090   -8.4910   -0.5760 H   0  0  0  0  0  0  0  0  0  0  0  0
    0.1630  -10.5160   -0.4250 C   0  0  0  0  0  0  0  0  0  0  0  0
    0.3090  -10.7310   -1.4900 H   0  0  0  0  0  0  0  0  0  0  0  0
   -0.8770  -10.2120   -0.2910 H   0  0  0  0  0  0  0  0  0  0  0  0
    3.4250   -8.9570   -0.7170 C   0  0  0  0  0  0  0  0  0  0  0  0
    4.8480   -9.1510   -0.5080 C   0  0  0  0  0  0  0  0  0  0  0  0
   -2.0350  -11.0100    1.8710 O   0  0  0  0  0  0  0  0  0  0  0  0
   -0.1810  -13.5450    1.6380 O   0  0  0  0  0  0  0  0  0  0  0  0
    3.0260   -8.0640   -1.4680 O   0  0  0  0  0  0  0  0  0  0  0  0
   -4.6430  -10.3840    1.7380 F   0  0  0  0  0  0  0  0  0  0  0  0
    5.3200   -9.6450    0.6780 O   0  0  0  0  0  0  0  0  0  0  0  0
    6.6770   -9.6550    0.6030 C   0  0  0  0  0  0  0  0  0  0  0  0
    7.0960   -9.1520   -0.6050 C   0  0  0  0  0  0  0  0  0  0  0  0
    8.1200   -9.0330   -0.9290 H   0  0  0  0  0  0  0  0  0  0  0  0
    5.9200   -8.8110   -1.3160 C   0  0  0  0  0  0  0  0  0  0  0  0
    5.8490   -8.3660   -2.2990 H   0  0  0  0  0  0  0  0  0  0  0  0
    7.6300  -10.2300    1.9020 Cl  0  0  0  0  0  0  0  0  0  0  0  0
  1  2  1  0  0  0  0
  1  3  1  0  0  0  0
  1  9  2  0  0  0  0
  3  4  1  0  0  0  0
  3  5  2  0  0  0  0
  5  6  1  0  0  0  0
  5  7  1  0  0  0  0
  7  8  2  0  0  0  0
  7 10  1  0  0  0  0
  8  9  1  0  0  0  0
  8 14  1  0  0  0  0
  9 36  1  0  0  0  0
 10 11  1  0  0  0  0
 10 12  1  0  0  0  0
 12 13  1  0  0  0  0
 12 14  2  0  0  0  0
 14 15  1  0  0  0  0
 15 16  1  0  0  0  0
 15 33  2  0  0  0  0
 16 17  1  0  0  0  0
 16 34  2  0  0  0  0
 17 18  1  0  0  0  0
 17 28  1  0  0  0  0
 18 19  1  0  0  0  0
 18 20  1  0  0  0  0
 18 21  1  0  0  0  0
 21 22  1  0  0  0  0
 21 23  1  0  0  0  0
 21 24  1  0  0  0  0
 24 25  1  0  0  0  0
 24 31  1  0  0  0  0
 25 26  1  0  0  0  0
 25 27  1  0  0  0  0
 25 28  1  0  0  0  0
 28 29  1  0  0  0  0
 28 30  1  0  0  0  0
 31 32  1  0  0  0  0
 31 35  2  0  0  0  0
 32 37  1  0  0  0  0
 32 41  2  0  0  0  0
 37 38  1  0  0  0  0
 38 39  2  0  0  0  0
 38 43  1  0  0  0  0
 39 40  1  0  0  0  0
 39 41  1  0  0  0  0
 41 42  1  0  0  0  0
M  END
>  <Activity>
8.5086

>  <AM1_dipole>
6.2172

>  <AM1_E>
-124455

>  <AM1_Eele>
-860531

>  <AM1_HF>
-57.0142

>  <AM1_HOMO>
-8.87665

>  <AM1_IP>
8.87665

>  <AM1_LUMO>
-0.63029

>  <diameter>
15

>  <petitjean>
0.466667

>  <petitjeanSC>
0.875

>  <radius>
8

>  <VDistEq>
3.66293

>  <VDistMa>
9.29236

>  <weinerPath>
2209

>  <weinerPol>
46

>  <BCUT_PEOE_0>
-2.70938

>  <BCUT_PEOE_1>
-0.607386

>  <BCUT_PEOE_2>
0.645283

>  <BCUT_PEOE_3>
2.65261

>  <BCUT_SLOGP_0>
-2.85971

>  <BCUT_SLOGP_1>
-0.455149

>  <BCUT_SLOGP_2>
0.774952

>  <BCUT_SLOGP_3>
2.50274

>  <BCUT_SMR_0>
-2.43169

>  <BCUT_SMR_1>
-0.433165

>  <BCUT_SMR_2>
0.825498

>  <BCUT_SMR_3>
2.91953

>  <GCUT_PEOE_0>
-0.859948

>  <GCUT_PEOE_1>
-0.404332

>  <GCUT_PEOE_2>
0.0872678

>  <GCUT_PEOE_3>
2.6277

>  <GCUT_SLOGP_0>
-0.976484

>  <GCUT_SLOGP_1>
-0.336582

>  <GCUT_SLOGP_2>
0.248104

>  <GCUT_SLOGP_3>
2.60025

>  <GCUT_SMR_0>
-0.508888

>  <GCUT_SMR_1>
-0.203102

>  <GCUT_SMR_2>
0.241848

>  <GCUT_SMR_3>
2.89124

>  <a_aro>
14

>  <a_count>
43

>  <a_IC>
81.2605

>  <a_ICM>
1.88978

>  <a_nH>
15

>  <b_1rotN>
5

>  <b_1rotR>
0.16129

>  <b_ar>
15

>  <b_count>
46

>  <b_double>
3

>  <b_rotN>
5

>  <b_rotR>
0.16129

>  <b_single>
28

>  <b_triple>
0

>  <chi0v>
15.3318

>  <chi0v_C>
10.7925

>  <chi1v>
8.97073

>  <chi1v_C>
4.94338

>  <chiral>
0

>  <chiral_u>
0

>  <nmol>
1

>  <reactive>
0

>  <rings>
4

>  <Weight>
403.797

>  <a_heavy>
28

>  <a_nB>
0

>  <a_nBr>
0

>  <a_nC>
19

>  <a_nCl>
1

>  <a_nF>
1

>  <a_nI>
0

>  <a_nN>
3

>  <a_nO>
4

>  <a_nP>
0

>  <a_nS>
0

>  <b_heavy>
31

>  <chi0>
19.8361

>  <chi0_C>
12.2672

>  <chi1>
13.4524

>  <chi1_C>
6.54124

>  <FCharge>
0

>  <VAdjEq>
0.398935

>  <VAdjMa>
5.9542

>  <zagreb>
152

>  <balabanJ>
1.29471

>  <PEOE_PC+>
2.65429

>  <PEOE_PC->
-2.65429

>  <PEOE_RPC+>
0.111179

>  <PEOE_RPC->
0.165334

>  <PEOE_VSA+0>
78.4233

>  <PEOE_VSA+1>
61.9239

>  <PEOE_VSA+2>
9.02085

>  <PEOE_VSA+3>
27.8473

>  <PEOE_VSA+4>
0

>  <PEOE_VSA+5>
34.3576

>  <PEOE_VSA+6>
0

>  <PEOE_VSA-0>
78.6016

>  <PEOE_VSA-1>
12.2549

>  <PEOE_VSA-2>
0

>  <PEOE_VSA-3>
0

>  <PEOE_VSA-4>
11.9086

>  <PEOE_VSA-5>
40.7008

>  <PEOE_VSA-6>
2.64065

>  <PEOE_VSA_FHYD>
0.749475

>  <PEOE_VSA_FNEG>
0.408485

>  <PEOE_VSA_FPNEG>
0.154468

>  <PEOE_VSA_FPOL>
0.250525

>  <PEOE_VSA_FPOS>
0.591515

>  <PEOE_VSA_FPPOS>
0.0960569

>  <PEOE_VSA_HYD>
268.072

>  <PEOE_VSA_NEG>
146.107

>  <PEOE_VSA_PNEG>
55.25

>  <PEOE_VSA_POL>
89.6076

>  <PEOE_VSA_POS>
211.573

>  <PEOE_VSA_PPOS>
34.3576

>  <PC+>
4.913

>  <PC->
-4.914

>  <Q_PC+>
4.913

>  <Q_PC->
-4.914

>  <Q_RPC+>
0.145532

>  <Q_RPC->
0.13431

>  <Q_VSA_FHYD>
0.534594

>  <Q_VSA_FNEG>
0.479825

>  <Q_VSA_FPNEG>
0.167609

>  <Q_VSA_FPOL>
0.465406

>  <Q_VSA_FPOS>
0.520175

>  <Q_VSA_FPPOS>
0.297796

>  <Q_VSA_HYD>
191.213

>  <Q_VSA_NEG>
171.624

>  <Q_VSA_PNEG>
59.9504

>  <Q_VSA_POL>
166.466

>  <Q_VSA_POS>
186.056

>  <Q_VSA_PPOS>
106.516

>  <RPC+>
0.145532

>  <RPC->
0.13431

>  <lip_acc>
7

>  <lip_don>
1

>  <lip_druglike>
1

>  <lip_violation>
0

>  <opr_brigid>
21

>  <opr_leadlike>
1

>  <opr_nring>
4

>  <opr_nrot>
5

>  <opr_violation>
0

>  <E>
76.6128

>  <E_ang>
9.04422

>  <E_ele>
31.96

>  <E_nb>
64.4576

>  <E_oop>
0.0746423

>  <E_sol>
-15.7045

>  <E_stb>
-0.0851114

>  <E_str>
5.26499

>  <E_strain>
0.00390045

>  <E_tor>
-2.14356

>  <E_vdw>
32.4976

>  <E_rele>
0

>  <E_rnb>
0

>  <E_rsol>
0

>  <E_rvdw>
0

>  <Kier1>
21.2404

>  <Kier2>
9.01333

>  <Kier3>
4.39646

>  <KierA1>
15.7876

>  <KierA2>
6.62036

>  <KierA3>
3.20202

>  <KierFlex>
3.73283

>  <logS>
-5.12169

>  <MNDO_dipole>
7.37921

>  <MNDO_E>
-124135

>  <MNDO_Eele>
-849968

>  <MNDO_HF>
-95.427

>  <MNDO_HOMO>
-8.957

>  <MNDO_IP>
8.957

>  <MNDO_LUMO>
-0.68847

>  <apol>
52.6869

>  <bpol>
27.4311

>  <mr>
10.1455

>  <dipole>
1.63795

>  <dipoleX>
-0.0507207

>  <dipoleY>
-0.81412

>  <dipoleZ>
-1.42039

>  <pmi>
10006.9

>  <pmiX>
8483.8

>  <pmiY>
1090.62

>  <pmiZ>
432.51

>  <rgyr>
4.97816

>  <a_acc>
3

>  <a_acid>
0

>  <a_base>
0

>  <a_don>
1

>  <a_hyd>
16

>  <vsa_acc>
40.7008

>  <vsa_acid>
0

>  <vsa_base>
0

>  <vsa_don>
5.68258

>  <vsa_hyd>
242.168

>  <vsa_other>
56.0896

>  <vsa_pol>
46.3833

>  <PM3_dipole>
5.86081

>  <PM3_E>
-112967

>  <PM3_Eele>
-842617

>  <PM3_HF>
-104.125

>  <PM3_HOMO>
-8.90304

>  <PM3_IP>
8.90304

>  <PM3_LUMO>
-0.69485

>  <SlogP>
2.7207

>  <SlogP_VSA0>
0

>  <SlogP_VSA1>
22.4538

>  <SlogP_VSA2>
49.7688

>  <SlogP_VSA3>
73.7583

>  <SlogP_VSA4>
56.3588

>  <SlogP_VSA5>
9.50735

>  <SlogP_VSA6>
5.76385

>  <SlogP_VSA7>
110.147

>  <SlogP_VSA8>
0

>  <SlogP_VSA9>
54.1088

>  <SMR>
9.87887

>  <SMR_VSA0>
81.094

>  <SMR_VSA1>
21.2087

>  <SMR_VSA2>
25.9065

>  <SMR_VSA3>
14.3982

>  <SMR_VSA4>
4.7171

>  <SMR_VSA5>
105.43

>  <SMR_VSA6>
89.9635

>  <SMR_VSA7>
39.1486

>  <ASA>
629.234

>  <ASA+>
217.462

>  <ASA->
300.788

>  <ASA_H>
461.514

>  <ASA_P>
167.72

>  <CASA+>
1068.39

>  <CASA->
1478.07

>  <DASA>
83.3263

>  <DCASA>
409.683

>  <FASA+>
0.345598

>  <FASA->
0.478023

>  <FASA_H>
0.733453

>  <FASA_P>
0.266547

>  <FCASA+>
1.69792

>  <FCASA->
2.349

>  <VSA>
380.525

>  <TPSA>
86.62

>  <density>
0.854697

>  <vdw_area>
357.679

>  <vdw_vol>
472.445

>  <vsurf_A>
1.96519

>  <vsurf_CP>
0.121277

>  <vsurf_CW1>
2.67216

>  <vsurf_CW2>
2.15232

>  <vsurf_CW3>
1.37985

>  <vsurf_CW4>
0.650993

>  <vsurf_CW5>
0.241004

>  <vsurf_CW6>
0.0578165

>  <vsurf_CW7>
0.00616347

>  <vsurf_CW8>
0

>  <vsurf_D1>
900

>  <vsurf_D2>
511.875

>  <vsurf_D3>
381.5

>  <vsurf_D4>
317.25

>  <vsurf_D5>
264.625

>  <vsurf_D6>
214.5

>  <vsurf_D7>
121.125

>  <vsurf_D8>
64.75

>  <vsurf_DD12>
1.11803

>  <vsurf_DD13>
0.5

>  <vsurf_DD23>
0.707107

>  <vsurf_DW12>
0.5

>  <vsurf_DW13>
5.33854

>  <vsurf_DW23>
5.67891

>  <vsurf_EDmin1>
-2.6204

>  <vsurf_EDmin2>
-2.59994

>  <vsurf_EDmin3>
-2.54949

>  <vsurf_EWmin1>
-5.7048

>  <vsurf_EWmin2>
-5.68664

>  <vsurf_EWmin3>
-5.39632

>  <vsurf_G>
1.36309

>  <vsurf_HB1>
321.25

>  <vsurf_HB2>
394.875

>  <vsurf_HB3>
338.125

>  <vsurf_HB4>
126.5

>  <vsurf_HB5>
35.5

>  <vsurf_HB6>
8.125

>  <vsurf_HB7>
1.125

>  <vsurf_HB8>
0

>  <vsurf_HL1>
0.108781

>  <vsurf_HL2>
0.0291568

>  <vsurf_ID1>
0.636792

>  <vsurf_ID2>
0.744734

>  <vsurf_ID3>
0.767118

>  <vsurf_ID4>
0.794105

>  <vsurf_ID5>
0.889816

>  <vsurf_ID6>
1.09355

>  <vsurf_ID7>
1.38483

>  <vsurf_ID8>
1.46918

>  <vsurf_IW1>
0.256329

>  <vsurf_IW2>
0.581807

>  <vsurf_IW3>
0.963945

>  <vsurf_IW4>
1.48565

>  <vsurf_IW5>
1.22181

>  <vsurf_IW6>
1.85108

>  <vsurf_IW7>
3.49057

>  <vsurf_IW8>
0

>  <vsurf_R>
1.41601

>  <vsurf_S>
574.324

>  <vsurf_V>
813.25

>  <vsurf_W1>
1396.38

>  <vsurf_W2>
826.625

>  <vsurf_W3>
416.375

>  <vsurf_W4>
143.125

>  <vsurf_W5>
41.5

>  <vsurf_W6>
9.25

>  <vsurf_W7>
1.125

>  <vsurf_W8>
0

>  <vsurf_Wp1>
1075.13

>  <vsurf_Wp2>
431.75

>  <vsurf_Wp3>
78.25

>  <vsurf_Wp4>
16.625

>  <vsurf_Wp5>
6

>  <vsurf_Wp6>
1.125

>  <vsurf_Wp7>
0

>  <vsurf_Wp8>
0

>  <dens>
1.17983

>  <glob>
0.0513056

>  <std_dim1>
4.61496

>  <std_dim2>
1.36348

>  <std_dim3>
1.04532

>  <vol>
342.25

>  <logP(o/w)>
1.753

$$$$
D8.cdx
  MOE2008           3D

 43 46  0  0  0  0  0  0  0  0999 V2000
   -6.3990  -14.6300   -0.1800 C   0  0  0  0  0  0  0  0  0  0  0  0
   -7.1450  -13.9640    0.2440 H   0  0  0  0  0  0  0  0  0  0  0  0
   -6.7420  -15.5110   -1.2000 C   0  0  0  0  0  0  0  0  0  0  0  0
   -7.7640  -15.5320   -1.5720 H   0  0  0  0  0  0  0  0  0  0  0  0
   -5.7910  -16.3740   -1.7510 C   0  0  0  0  0  0  0  0  0  0  0  0
   -6.0640  -17.0620   -2.5460 H   0  0  0  0  0  0  0  0  0  0  0  0
   -4.4850  -16.3200   -1.2450 C   0  0  0  0  0  0  0  0  0  0  0  0
   -4.1020  -15.4480   -0.2200 C   0  0  0  0  0  0  0  0  0  0  0  0
   -5.0910  -14.5920    0.3110 C   0  0  0  0  0  0  0  0  0  0  0  0
   -3.3760  -17.0480   -1.6000 N   0  0  0  0  0  0  0  0  0  0  0  0
   -3.3620  -17.7610   -2.3170 H   0  0  0  0  0  0  0  0  0  0  0  0
   -2.3010  -16.6670   -0.8440 C   0  0  0  0  0  0  0  0  0  0  0  0
   -1.3400  -17.1450   -0.9930 H   0  0  0  0  0  0  0  0  0  0  0  0
   -2.7060  -15.6760    0.0340 C   0  0  0  0  0  0  0  0  0  0  0  0
   -1.8380  -15.0250    1.0100 C   0  0  0  0  0  0  0  0  0  0  0  0
   -0.3850  -15.4460    1.1190 C   0  0  0  0  0  0  0  0  0  0  0  0
    0.5610  -14.6360    0.4980 N   0  0  0  0  0  0  0  0  0  0  0  0
    1.9770  -15.0250    0.5370 C   0  0  0  0  0  0  0  0  0  0  0  0
    2.1280  -15.8910    1.1890 H   0  0  0  0  0  0  0  0  0  0  0  0
    2.2530  -15.3210   -0.4820 H   0  0  0  0  0  0  0  0  0  0  0  0
    2.8480  -13.8580    1.0070 C   0  0  0  0  0  0  0  0  0  0  0  0
    3.9040  -14.1270    1.0260 H   0  0  0  0  0  0  0  0  0  0  0  0
    2.5820  -13.5920    2.0380 H   0  0  0  0  0  0  0  0  0  0  0  0
    2.5800  -12.6670    0.1870 N   0  0  0  0  0  0  0  0  0  0  0  0
    1.1790  -12.2380    0.2150 C   0  0  0  0  0  0  0  0  0  0  0  0
    0.9460  -11.9460    1.2460 H   0  0  0  0  0  0  0  0  0  0  0  0
    1.0140  -11.3670   -0.4280 H   0  0  0  0  0  0  0  0  0  0  0  0
    0.2640  -13.3900   -0.2340 C   0  0  0  0  0  0  0  0  0  0  0  0
    0.4370  -13.6090   -1.2950 H   0  0  0  0  0  0  0  0  0  0  0  0
   -0.7810  -13.0960   -0.1260 H   0  0  0  0  0  0  0  0  0  0  0  0
    3.5100  -11.9560   -0.5770 C   0  0  0  0  0  0  0  0  0  0  0  0
    4.7730  -12.5900   -0.9040 C   0  0  0  0  0  0  0  0  0  0  0  0
   -2.2030  -14.1290    1.7650 O   0  0  0  0  0  0  0  0  0  0  0  0
   -0.1430  -16.4790    1.7330 O   0  0  0  0  0  0  0  0  0  0  0  0
    3.2560  -10.8230   -0.9890 O   0  0  0  0  0  0  0  0  0  0  0  0
   -4.8180  -13.7220    1.2930 F   0  0  0  0  0  0  0  0  0  0  0  0
    4.8390  -13.9490   -1.0680 O   0  0  0  0  0  0  0  0  0  0  0  0
    6.1120  -14.2400   -1.4230 C   0  0  0  0  0  0  0  0  0  0  0  0
    6.8760  -13.1060   -1.5240 C   0  0  0  0  0  0  0  0  0  0  0  0
    7.9190  -13.0470   -1.8020 H   0  0  0  0  0  0  0  0  0  0  0  0
    6.0050  -12.0350   -1.2070 C   0  0  0  0  0  0  0  0  0  0  0  0
    6.2370  -10.9780   -1.1970 H   0  0  0  0  0  0  0  0  0  0  0  0
    6.7240  -15.9970   -1.7430 Br  0  0  0  0  0  0  0  0  0  0  0  0
  1  2  1  0  0  0  0
  1  3  1  0  0  0  0
  1  9  2  0  0  0  0
  3  4  1  0  0  0  0
  3  5  2  0  0  0  0
  5  6  1  0  0  0  0
  5  7  1  0  0  0  0
  7  8  2  0  0  0  0
  7 10  1  0  0  0  0
  8  9  1  0  0  0  0
  8 14  1  0  0  0  0
  9 36  1  0  0  0  0
 10 11  1  0  0  0  0
 10 12  1  0  0  0  0
 12 13  1  0  0  0  0
 12 14  2  0  0  0  0
 14 15  1  0  0  0  0
 15 16  1  0  0  0  0
 15 33  2  0  0  0  0
 16 17  1  0  0  0  0
 16 34  2  0  0  0  0
 17 18  1  0  0  0  0
 17 28  1  0  0  0  0
 18 19  1  0  0  0  0
 18 20  1  0  0  0  0
 18 21  1  0  0  0  0
 21 22  1  0  0  0  0
 21 23  1  0  0  0  0
 21 24  1  0  0  0  0
 24 25  1  0  0  0  0
 24 31  1  0  0  0  0
 25 26  1  0  0  0  0
 25 27  1  0  0  0  0
 25 28  1  0  0  0  0
 28 29  1  0  0  0  0
 28 30  1  0  0  0  0
 31 32  1  0  0  0  0
 31 35  2  0  0  0  0
 32 37  1  0  0  0  0
 32 41  2  0  0  0  0
 37 38  1  0  0  0  0
 38 39  2  0  0  0  0
 38 43  1  0  0  0  0
 39 40  1  0  0  0  0
 39 41  1  0  0  0  0
 41 42  1  0  0  0  0
M  END
>  <Activity>
8.8538

>  <AM1_dipole>
5.24236

>  <AM1_E>
-123982

>  <AM1_Eele>
-862282

>  <AM1_HF>
-45.3999

>  <AM1_HOMO>
-8.86834

>  <AM1_IP>
8.86834

>  <AM1_LUMO>
-0.61659

>  <diameter>
15

>  <petitjean>
0.466667

>  <petitjeanSC>
0.875

>  <radius>
8

>  <VDistEq>
3.66293

>  <VDistMa>
9.29236

>  <weinerPath>
2209

>  <weinerPol>
46

>  <BCUT_PEOE_0>
-2.70939

>  <BCUT_PEOE_1>
-0.608166

>  <BCUT_PEOE_2>
0.645289

>  <BCUT_PEOE_3>
2.65259

>  <BCUT_SLOGP_0>
-2.85971

>  <BCUT_SLOGP_1>
-0.452609

>  <BCUT_SLOGP_2>
0.77577

>  <BCUT_SLOGP_3>
2.50275

>  <BCUT_SMR_0>
-2.43169

>  <BCUT_SMR_1>
-0.42756

>  <BCUT_SMR_2>
0.825955

>  <BCUT_SMR_3>
2.91955

>  <GCUT_PEOE_0>
-0.859948

>  <GCUT_PEOE_1>
-0.404023

>  <GCUT_PEOE_2>
0.087268

>  <GCUT_PEOE_3>
2.62744

>  <GCUT_SLOGP_0>
-0.976484

>  <GCUT_SLOGP_1>
-0.336587

>  <GCUT_SLOGP_2>
0.248125

>  <GCUT_SLOGP_3>
2.60095

>  <GCUT_SMR_0>
-0.508895

>  <GCUT_SMR_1>
-0.203259

>  <GCUT_SMR_2>
0.280732

>  <GCUT_SMR_3>
2.89255

>  <a_aro>
14

>  <a_count>
43

>  <a_IC>
81.2605

>  <a_ICM>
1.88978

>  <a_nH>
15

>  <b_1rotN>
5

>  <b_1rotR>
0.16129

>  <b_ar>
15

>  <b_count>
46

>  <b_double>
3

>  <b_rotN>
5

>  <b_rotR>
0.16129

>  <b_single>
28

>  <b_triple>
0

>  <chi0v>
16.1619

>  <chi0v_C>
10.7925

>  <chi1v>
9.38576

>  <chi1v_C>
4.94338

>  <chiral>
0

>  <chiral_u>
0

>  <nmol>
1

>  <reactive>
0

>  <rings>
4

>  <Weight>
448.248

>  <a_heavy>
28

>  <a_nB>
0

>  <a_nBr>
1

>  <a_nC>
19

>  <a_nCl>
0

>  <a_nF>
1

>  <a_nI>
0

>  <a_nN>
3

>  <a_nO>
4

>  <a_nP>
0

>  <a_nS>
0

>  <b_heavy>
31

>  <chi0>
19.8361

>  <chi0_C>
12.2672

>  <chi1>
13.4524

>  <chi1_C>
6.54124

>  <FCharge>
0

>  <VAdjEq>
0.398935

>  <VAdjMa>
5.9542

>  <zagreb>
152

>  <balabanJ>
1.29471

>  <PEOE_PC+>
2.62933

>  <PEOE_PC->
-2.62933

>  <PEOE_RPC+>
0.112234

>  <PEOE_RPC->
0.168639

>  <PEOE_VSA+0>
78.4233

>  <PEOE_VSA+1>
61.9239

>  <PEOE_VSA+2>
9.02085

>  <PEOE_VSA+3>
25.5797

>  <PEOE_VSA+4>
0

>  <PEOE_VSA+5>
34.3576

>  <PEOE_VSA+6>
0

>  <PEOE_VSA-0>
92.6445

>  <PEOE_VSA-1>
12.2549

>  <PEOE_VSA-2>
0

>  <PEOE_VSA-3>
0

>  <PEOE_VSA-4>
11.9086

>  <PEOE_VSA-5>
40.7008

>  <PEOE_VSA-6>
2.64065

>  <PEOE_VSA_FHYD>
0.75746

>  <PEOE_VSA_FNEG>
0.433475

>  <PEOE_VSA_FPNEG>
0.149545

>  <PEOE_VSA_FPOL>
0.24254

>  <PEOE_VSA_FPOS>
0.566525

>  <PEOE_VSA_FPPOS>
0.0929954

>  <PEOE_VSA_HYD>
279.847

>  <PEOE_VSA_NEG>
160.149

>  <PEOE_VSA_PNEG>
55.25

>  <PEOE_VSA_POL>
89.6076

>  <PEOE_VSA_POS>
209.305

>  <PEOE_VSA_PPOS>
34.3576

>  <PC+>
4.847

>  <PC->
-4.848

>  <Q_PC+>
4.847

>  <Q_PC->
-4.848

>  <Q_RPC+>
0.147514

>  <Q_RPC->
0.136139

>  <Q_VSA_FHYD>
0.578578

>  <Q_VSA_FNEG>
0.502542

>  <Q_VSA_FPNEG>
0.162267

>  <Q_VSA_FPOL>
0.421422

>  <Q_VSA_FPOS>
0.497458

>  <Q_VSA_FPPOS>
0.259155

>  <Q_VSA_HYD>
213.758

>  <Q_VSA_NEG>
185.667

>  <Q_VSA_PNEG>
59.9504

>  <Q_VSA_POL>
155.696

>  <Q_VSA_POS>
183.788

>  <Q_VSA_PPOS>
95.7459

>  <RPC+>
0.147514

>  <RPC->
0.136139

>  <lip_acc>
7

>  <lip_don>
1

>  <lip_druglike>
1

>  <lip_violation>
0

>  <opr_brigid>
21

>  <opr_leadlike>
1

>  <opr_nring>
4

>  <opr_nrot>
5

>  <opr_violation>
0

>  <E>
77.6939

>  <E_ang>
9.4709

>  <E_ele>
32.5081

>  <E_nb>
64.8784

>  <E_oop>
0.0983478

>  <E_sol>
-17.1977

>  <E_stb>
-0.392098

>  <E_str>
5.37976

>  <E_strain>
0.00452675

>  <E_tor>
-1.74141

>  <E_vdw>
32.3703

>  <E_rele>
0

>  <E_rnb>
2.84217e-014

>  <E_rsol>
2.84217e-014

>  <E_rvdw>
0

>  <Kier1>
21.2404

>  <Kier2>
9.01333

>  <Kier3>
4.39646

>  <KierA1>
16.4148

>  <KierA2>
6.8946

>  <KierA3>
3.33855

>  <KierFlex>
4.0419

>  <logS>
-5.47779

>  <MNDO_dipole>
5.45231

>  <MNDO_E>
-123974

>  <MNDO_Eele>
-853055

>  <MNDO_HF>
-84.3067

>  <MNDO_HOMO>
-8.90923

>  <MNDO_IP>
8.90923

>  <MNDO_LUMO>
-0.68189

>  <apol>
53.5569

>  <bpol>
28.3011

>  <mr>
10.3953

>  <dipole>
1.31947

>  <dipoleX>
0.301237

>  <dipoleY>
-0.618561

>  <dipoleZ>
-1.1259

>  <pmi>
10952.2

>  <pmiX>
9183.63

>  <pmiY>
1166.9

>  <pmiZ>
601.646

>  <rgyr>
4.943

>  <a_acc>
3

>  <a_acid>
0

>  <a_base>
0

>  <a_don>
1

>  <a_hyd>
16

>  <vsa_acc>
40.7008

>  <vsa_acid>
0

>  <vsa_base>
0

>  <vsa_don>
5.68258

>  <vsa_hyd>
256.211

>  <vsa_other>
53.822

>  <vsa_pol>
46.3833

>  <PM3_dipole>
5.70178

>  <PM3_E>
-113809

>  <PM3_Eele>
-843939

>  <PM3_HF>
-87.4623

>  <PM3_HOMO>
-8.91723

>  <PM3_IP>
8.91723

>  <PM3_LUMO>
-0.82739

>  <SlogP>
2.8298

>  <SlogP_VSA0>
0

>  <SlogP_VSA1>
22.4538

>  <SlogP_VSA2>
49.7688

>  <SlogP_VSA3>
73.7583

>  <SlogP_VSA4>
56.3588

>  <SlogP_VSA5>
14.8257

>  <SlogP_VSA6>
0

>  <SlogP_VSA7>
110.147

>  <SlogP_VSA8>
0

>  <SlogP_VSA9>
60.9142

>  <SMR>
10.1479

>  <SMR_VSA0>
81.094

>  <SMR_VSA1>
21.2087

>  <SMR_VSA2>
31.2249

>  <SMR_VSA3>
8.6344

>  <SMR_VSA4>
4.7171

>  <SMR_VSA5>
105.43

>  <SMR_VSA6>
89.9635

>  <SMR_VSA7>
45.9541

>  <ASA>
633.086

>  <ASA+>
213.437

>  <ASA->
317.335

>  <ASA_H>
472.753

>  <ASA_P>
160.333

>  <CASA+>
1034.53

>  <CASA->
1538.44

>  <DASA>
103.898

>  <DCASA>
503.909

>  <FASA+>
0.337138

>  <FASA->
0.501251

>  <FASA_H>
0.746744

>  <FASA_P>
0.253256

>  <FCASA+>
1.63411

>  <FCASA->
2.43006

>  <VSA>
389.742

>  <TPSA>
86.62

>  <density>
0.923316

>  <vdw_area>
369.455

>  <vdw_vol>
485.476

>  <vsurf_A>
3.15309

>  <vsurf_CP>
0.125472

>  <vsurf_CW1>
2.67535

>  <vsurf_CW2>
2.18731

>  <vsurf_CW3>
1.35917

>  <vsurf_CW4>
0.649669

>  <vsurf_CW5>
0.242429

>  <vsurf_CW6>
0.0609231

>  <vsurf_CW7>
0.00532649

>  <vsurf_CW8>
0

>  <vsurf_D1>
916.125

>  <vsurf_D2>
534.375

>  <vsurf_D3>
388.75

>  <vsurf_D4>
321

>  <vsurf_D5>
274.125

>  <vsurf_D6>
228.25

>  <vsurf_D7>
135.5

>  <vsurf_D8>
75.625

>  <vsurf_DD12>
0.707107

>  <vsurf_DD13>
0.5

>  <vsurf_DD23>
0.5

>  <vsurf_DW12>
0.707107

>  <vsurf_DW13>
5.33854

>  <vsurf_DW23>
5.78792

>  <vsurf_EDmin1>
-2.56385

>  <vsurf_EDmin2>
-2.55921

>  <vsurf_EDmin3>
-2.51632

>  <vsurf_EWmin1>
-5.62731

>  <vsurf_EWmin2>
-5.61578

>  <vsurf_EWmin3>
-5.24456

>  <vsurf_G>
1.35909

>  <vsurf_HB1>
327.625

>  <vsurf_HB2>
402.625

>  <vsurf_HB3>
333.375

>  <vsurf_HB4>
126.125

>  <vsurf_HB5>
36.25

>  <vsurf_HB6>
7.5

>  <vsurf_HB7>
0.875

>  <vsurf_HB8>
0

>  <vsurf_HL1>
0.109325

>  <vsurf_HL2>
0.027648

>  <vsurf_ID1>
0.750313

>  <vsurf_ID2>
0.795966

>  <vsurf_ID3>
0.837072

>  <vsurf_ID4>
0.949256

>  <vsurf_ID5>
1.06735

>  <vsurf_ID6>
1.15209

>  <vsurf_ID7>
0.996373

>  <vsurf_ID8>
0.925368

>  <vsurf_IW1>
0.614237

>  <vsurf_IW2>
1.18169

>  <vsurf_IW3>
1.82189

>  <vsurf_IW4>
2.42982

>  <vsurf_IW5>
2.45677

>  <vsurf_IW6>
2.82088

>  <vsurf_IW7>
4.55588

>  <vsurf_IW8>
0

>  <vsurf_R>
1.42857

>  <vsurf_S>
579.425

>  <vsurf_V>
827.75

>  <vsurf_W1>
1423.13

>  <vsurf_W2>
840.5

>  <vsurf_W3>
416.125

>  <vsurf_W4>
142.875

>  <vsurf_W5>
42.5

>  <vsurf_W6>
8.875

>  <vsurf_W7>
0.875

>  <vsurf_W8>
0

>  <vsurf_Wp1>
1095.5

>  <vsurf_Wp2>
437.875

>  <vsurf_Wp3>
82.75

>  <vsurf_Wp4>
16.75

>  <vsurf_Wp5>
6.25

>  <vsurf_Wp6>
1.375

>  <vsurf_Wp7>
0

>  <vsurf_Wp8>
0

>  <dens>
1.26982

>  <glob>
0.0633694

>  <std_dim1>
4.4032

>  <std_dim2>
1.50467

>  <std_dim3>
1.10843

>  <vol>
353

>  <logP(o/w)>
1.959

$$$$
D8.cdx
  MOE2008           3D

 44 47  0  0  0  0  0  0  0  0999 V2000
   -6.1500  -17.5590    0.9570 C   0  0  0  0  0  0  0  0  0  0  0  0
   -6.6510  -16.7980    1.5490 H   0  0  0  0  0  0  0  0  0  0  0  0
   -6.8680  -18.3250    0.0450 C   0  0  0  0  0  0  0  0  0  0  0  0
   -7.9360  -18.1610   -0.0740 H   0  0  0  0  0  0  0  0  0  0  0  0
   -6.2330  -19.3060   -0.7220 C   0  0  0  0  0  0  0  0  0  0  0  0
   -6.7970  -19.9040   -1.4320 H   0  0  0  0  0  0  0  0  0  0  0  0
   -4.8550  -19.4900   -0.5400 C   0  0  0  0  0  0  0  0  0  0  0  0
   -4.1000  -18.7400    0.3680 C   0  0  0  0  0  0  0  0  0  0  0  0
   -4.7770  -17.7580    1.1230 C   0  0  0  0  0  0  0  0  0  0  0  0
   -3.9990  -20.3710   -1.1540 N   0  0  0  0  0  0  0  0  0  0  0  0
   -4.2730  -21.0430   -1.8590 H   0  0  0  0  0  0  0  0  0  0  0  0
   -2.7300  -20.2080   -0.6730 C   0  0  0  0  0  0  0  0  0  0  0  0
   -1.9260  -20.8290   -1.0480 H   0  0  0  0  0  0  0  0  0  0  0  0
   -2.7430  -19.2050    0.2810 C   0  0  0  0  0  0  0  0  0  0  0  0
   -1.5730  -18.7470    1.0230 C   0  0  0  0  0  0  0  0  0  0  0  0
   -0.2160  -19.3720    0.7580 C   0  0  0  0  0  0  0  0  0  0  0  0
    0.7020  -18.6140    0.0380 N   0  0  0  0  0  0  0  0  0  0  0  0
    2.0480  -19.1290   -0.1990 C   0  0  0  0  0  0  0  0  0  0  0  0
    2.1940  -20.0960    0.2940 H   0  0  0  0  0  0  0  0  0  0  0  0
    2.1400  -19.2910   -1.2790 H   0  0  0  0  0  0  0  0  0  0  0  0
    3.1220  -18.1350    0.2740 C   0  0  0  0  0  0  0  0  0  0  0  0
    4.0910  -18.5070   -0.0670 H   0  0  0  0  0  0  0  0  0  0  0  0
    3.1320  -18.0800    1.3690 H   0  0  0  0  0  0  0  0  0  0  0  0
    2.8640  -16.7700   -0.2190 N   0  0  0  0  0  0  0  0  0  0  0  0
    1.4920  -16.2830   -0.0210 C   0  0  0  0  0  0  0  0  0  0  0  0
    1.3690  -16.1370    1.0590 H   0  0  0  0  0  0  0  0  0  0  0  0
    1.3390  -15.3110   -0.4990 H   0  0  0  0  0  0  0  0  0  0  0  0
    0.4510  -17.2830   -0.5290 C   0  0  0  0  0  0  0  0  0  0  0  0
    0.5270  -17.3840   -1.6180 H   0  0  0  0  0  0  0  0  0  0  0  0
   -0.5550  -16.9260   -0.3030 H   0  0  0  0  0  0  0  0  0  0  0  0
    3.8030  -15.9270   -0.8310 C   0  0  0  0  0  0  0  0  0  0  0  0
    5.2160  -16.2350   -0.7050 C   0  0  0  0  0  0  0  0  0  0  0  0
   -1.5990  -17.8540    1.8660 O   0  0  0  0  0  0  0  0  0  0  0  0
   -0.0190  -20.5000    1.1970 O   0  0  0  0  0  0  0  0  0  0  0  0
    3.4390  -14.9310   -1.4590 O   0  0  0  0  0  0  0  0  0  0  0  0
   -4.1380  -16.9880    2.0150 F   0  0  0  0  0  0  0  0  0  0  0  0
    5.6920  -16.8850    0.4030 O   0  0  0  0  0  0  0  0  0  0  0  0
    7.0410  -16.9700    0.2700 C   0  0  0  0  0  0  0  0  0  0  0  0
    7.4570  -16.3690   -0.8930 C   0  0  0  0  0  0  0  0  0  0  0  0
    8.4760  -16.2790   -1.2470 H   0  0  0  0  0  0  0  0  0  0  0  0
    6.2820  -15.8800   -1.5150 C   0  0  0  0  0  0  0  0  0  0  0  0
    6.2080  -15.3270   -2.4420 H   0  0  0  0  0  0  0  0  0  0  0  0
    7.7530  -17.6230    1.3050 C   0  0  0  0  0  0  0  0  0  0  0  0
    8.3420  -18.1600    2.1500 N   0  0  0  0  0  0  0  0  0  0  0  0
  1  2  1  0  0  0  0
  1  3  1  0  0  0  0
  1  9  2  0  0  0  0
  3  4  1  0  0  0  0
  3  5  2  0  0  0  0
  5  6  1  0  0  0  0
  5  7  1  0  0  0  0
  7  8  2  0  0  0  0
  7 10  1  0  0  0  0
  8  9  1  0  0  0  0
  8 14  1  0  0  0  0
  9 36  1  0  0  0  0
 10 11  1  0  0  0  0
 10 12  1  0  0  0  0
 12 13  1  0  0  0  0
 12 14  2  0  0  0  0
 14 15  1  0  0  0  0
 15 16  1  0  0  0  0
 15 33  2  0  0  0  0
 16 17  1  0  0  0  0
 16 34  2  0  0  0  0
 17 18  1  0  0  0  0
 17 28  1  0  0  0  0
 18 19  1  0  0  0  0
 18 20  1  0  0  0  0
 18 21  1  0  0  0  0
 21 22  1  0  0  0  0
 21 23  1  0  0  0  0
 21 24  1  0  0  0  0
 24 25  1  0  0  0  0
 24 31  1  0  0  0  0
 25 26  1  0  0  0  0
 25 27  1  0  0  0  0
 25 28  1  0  0  0  0
 28 29  1  0  0  0  0
 28 30  1  0  0  0  0
 31 32  1  0  0  0  0
 31 35  2  0  0  0  0
 32 37  1  0  0  0  0
 32 41  2  0  0  0  0
 37 38  1  0  0  0  0
 38 39  2  0  0  0  0
 38 43  1  0  0  0  0
 39 40  1  0  0  0  0
 39 41  1  0  0  0  0
 41 42  1  0  0  0  0
 43 44  3  0  0  0  0
M  END
>  <Activity>
8.1549

>  <AM1_dipole>
7.18918

>  <AM1_E>
-123542

>  <AM1_Eele>
-871656

>  <AM1_HF>
-19.1185

>  <AM1_HOMO>
-8.89399

>  <AM1_IP>
8.89399

>  <AM1_LUMO>
-0.91941

>  <diameter>
16

>  <petitjean>
0.5

>  <petitjeanSC>
1

>  <radius>
8

>  <VDistEq>
3.73384

>  <VDistMa>
9.39071

>  <weinerPath>
2467

>  <weinerPol>
48

>  <BCUT_PEOE_0>
-2.70938

>  <BCUT_PEOE_1>
-0.623268

>  <BCUT_PEOE_2>
0.622437

>  <BCUT_PEOE_3>
2.65263

>  <BCUT_SLOGP_0>
-2.85972

>  <BCUT_SLOGP_1>
-0.531717

>  <BCUT_SLOGP_2>
0.750323

>  <BCUT_SLOGP_3>
2.5022

>  <BCUT_SMR_0>
-2.43169

>  <BCUT_SMR_1>
-0.419712

>  <BCUT_SMR_2>
0.793038

>  <BCUT_SMR_3>
2.91952

>  <GCUT_PEOE_0>
-0.859948

>  <GCUT_PEOE_1>
-0.447687

>  <GCUT_PEOE_2>
0.0758432

>  <GCUT_PEOE_3>
2.63377

>  <GCUT_SLOGP_0>
-0.976485

>  <GCUT_SLOGP_1>
-0.345287

>  <GCUT_SLOGP_2>
0.198745

>  <GCUT_SLOGP_3>
2.60046

>  <GCUT_SMR_0>
-0.508901

>  <GCUT_SMR_1>
-0.213112

>  <GCUT_SMR_2>
0.265183

>  <GCUT_SMR_3>
2.89547

>  <a_aro>
14

>  <a_count>
44

>  <a_IC>
79.1731

>  <a_ICM>
1.79939

>  <a_nH>
15

>  <b_1rotN>
5

>  <b_1rotR>
0.15625

>  <b_ar>
15

>  <b_count>
47

>  <b_double>
3

>  <b_rotN>
6

>  <b_rotR>
0.1875

>  <b_single>
28

>  <b_triple>
1

>  <chi0v>
15.1451

>  <chi0v_C>
11.2925

>  <chi1v>
8.87739

>  <chi1v_C>
5.19338

>  <chiral>
0

>  <chiral_u>
0

>  <nmol>
1

>  <reactive>
0

>  <rings>
4

>  <Weight>
394.362

>  <a_heavy>
29

>  <a_nB>
0

>  <a_nBr>
0

>  <a_nC>
20

>  <a_nCl>
0

>  <a_nF>
1

>  <a_nI>
0

>  <a_nN>
4

>  <a_nO>
4

>  <a_nP>
0

>  <a_nS>
0

>  <b_heavy>
32

>  <chi0>
20.5432

>  <chi0_C>
12.9743

>  <chi1>
13.9904

>  <chi1_C>
6.94949

>  <FCharge>
0

>  <VAdjEq>
0.388286

>  <VAdjMa>
6

>  <zagreb>
156

>  <balabanJ>
1.28179

>  <PEOE_PC+>
2.80119

>  <PEOE_PC->
-2.80119

>  <PEOE_RPC+>
0.105348

>  <PEOE_RPC->
0.157014

>  <PEOE_VSA+0>
78.4233

>  <PEOE_VSA+1>
61.9239

>  <PEOE_VSA+2>
29.3204

>  <PEOE_VSA+3>
17.0775

>  <PEOE_VSA+4>
8.45852

>  <PEOE_VSA+5>
34.3576

>  <PEOE_VSA+6>
0

>  <PEOE_VSA-0>
49.0196

>  <PEOE_VSA-1>
12.2549

>  <PEOE_VSA-2>
0

>  <PEOE_VSA-3>
17.7425

>  <PEOE_VSA-4>
11.9086

>  <PEOE_VSA-5>
40.7008

>  <PEOE_VSA-6>
2.64065

>  <PEOE_VSA_FHYD>
0.73046

>  <PEOE_VSA_FNEG>
0.36904

>  <PEOE_VSA_FPNEG>
0.151857

>  <PEOE_VSA_FPOL>
0.26954

>  <PEOE_VSA_FPOS>
0.63096

>  <PEOE_VSA_FPPOS>
0.117682

>  <PEOE_VSA_HYD>
265.762

>  <PEOE_VSA_NEG>
134.267

>  <PEOE_VSA_PNEG>
55.25

>  <PEOE_VSA_POL>
98.0661

>  <PEOE_VSA_POS>
229.561

>  <PEOE_VSA_PPOS>
42.8161

>  <PC+>
5.346

>  <PC->
-5.347

>  <Q_PC+>
5.346

>  <Q_PC->
-5.347

>  <Q_RPC+>
0.133745

>  <Q_RPC->
0.123434

>  <Q_VSA_FHYD>
0.467501

>  <Q_VSA_FNEG>
0.439175

>  <Q_VSA_FPNEG>
0.213543

>  <Q_VSA_FPOL>
0.532499

>  <Q_VSA_FPOS>
0.560825

>  <Q_VSA_FPPOS>
0.318956

>  <Q_VSA_HYD>
170.09

>  <Q_VSA_NEG>
159.784

>  <Q_VSA_PNEG>
77.6929

>  <Q_VSA_POL>
193.738

>  <Q_VSA_POS>
204.044

>  <Q_VSA_PPOS>
116.045

>  <RPC+>
0.133745

>  <RPC->
0.123434

>  <lip_acc>
8

>  <lip_don>
1

>  <lip_druglike>
1

>  <lip_violation>
0

>  <opr_brigid>
21

>  <opr_leadlike>
1

>  <opr_nring>
4

>  <opr_nrot>
6

>  <opr_violation>
0

>  <E>
83.8139

>  <E_ang>
9.19329

>  <E_ele>
38.4968

>  <E_nb>
71.2843

>  <E_oop>
0.0806885

>  <E_sol>
-22.4325

>  <E_stb>
-0.0573934

>  <E_str>
5.23019

>  <E_strain>
0.00665677

>  <E_tor>
-1.91716

>  <E_vdw>
32.7875

>  <E_rele>
0

>  <E_rnb>
0

>  <E_rsol>
0

>  <E_rvdw>
0

>  <Kier1>
22.2031

>  <Kier2>
9.6465

>  <Kier3>
4.62109

>  <KierA1>
14.9317

>  <KierA2>
6.3871

>  <KierA3>
3.02464

>  <KierFlex>
3.28863

>  <logS>
-4.57999

>  <MNDO_dipole>
8.82408

>  <MNDO_E>
-123660

>  <MNDO_Eele>
-864860

>  <MNDO_HF>
-49.5776

>  <MNDO_HOMO>
-8.98393

>  <MNDO_IP>
8.98393

>  <MNDO_LUMO>
-0.7463

>  <apol>
53.3669

>  <bpol>
27.6711

>  <mr>
10.23

>  <dipole>
1.92165

>  <dipoleX>
-0.445251

>  <dipoleY>
-0.422041

>  <dipoleZ>
-1.82109

>  <pmi>
9509.85

>  <pmiX>
8227.6

>  <pmiY>
853.375

>  <pmiZ>
428.876

>  <rgyr>
4.91065

>  <a_acc>
4

>  <a_acid>
0

>  <a_base>
0

>  <a_don>
1

>  <a_hyd>
15

>  <vsa_acc>
58.4433

>  <vsa_acid>
0

>  <vsa_base>
0

>  <vsa_don>
5.68258

>  <vsa_hyd>
212.586

>  <vsa_other>
74.0779

>  <vsa_pol>
64.1258

>  <PM3_dipole>
8.52569

>  <PM3_E>
-112110

>  <PM3_Eele>
-857254

>  <PM3_HF>
-60.9525

>  <PM3_HOMO>
-8.96857

>  <PM3_IP>
8.96857

>  <PM3_LUMO>
-0.89957

>  <SlogP>
1.93898

>  <SlogP_VSA0>
0

>  <SlogP_VSA1>
22.4538

>  <SlogP_VSA2>
49.7688

>  <SlogP_VSA3>
121.419

>  <SlogP_VSA4>
61.8076

>  <SlogP_VSA5>
9.50735

>  <SlogP_VSA6>
0

>  <SlogP_VSA7>
110.147

>  <SlogP_VSA8>
0

>  <SlogP_VSA9>
14.9601

>  <SMR>
9.84937

>  <SMR_VSA0>
81.094

>  <SMR_VSA1>
52.2681

>  <SMR_VSA2>
25.9065

>  <SMR_VSA3>
30.685

>  <SMR_VSA4>
4.7171

>  <SMR_VSA5>
105.43

>  <SMR_VSA6>
89.9635

>  <SMR_VSA7>
0

>  <ASA>
637.125

>  <ASA+>
251.142

>  <ASA->
275.919

>  <ASA_H>
393.727

>  <ASA_P>
243.398

>  <CASA+>
1342.6

>  <CASA->
1475.34

>  <DASA>
24.7772

>  <DCASA>
132.735

>  <FASA+>
0.39418

>  <FASA->
0.433069

>  <FASA_H>
0.617974

>  <FASA_P>
0.382026

>  <FCASA+>
2.10729

>  <FCASA->
2.31562

>  <VSA>
382.187

>  <TPSA>
110.41

>  <density>
0.818316

>  <vdw_area>
363.828

>  <vdw_vol>
481.919

>  <vsurf_A>
2.31992

>  <vsurf_CP>
0.0974863

>  <vsurf_CW1>
2.74813

>  <vsurf_CW2>
2.38997

>  <vsurf_CW3>
1.64624

>  <vsurf_CW4>
0.752817

>  <vsurf_CW5>
0.293042

>  <vsurf_CW6>
0.0732601

>  <vsurf_CW7>
0.00485694

>  <vsurf_CW8>
0

>  <vsurf_D1>
900.875

>  <vsurf_D2>
533.25

>  <vsurf_D3>
384.5

>  <vsurf_D4>
308.75

>  <vsurf_D5>
253.5

>  <vsurf_D6>
201.125

>  <vsurf_D7>
135.75

>  <vsurf_D8>
84.5

>  <vsurf_DD12>
0.5

>  <vsurf_DD13>
0.707107

>  <vsurf_DD23>
0.5

>  <vsurf_DW12>
0.5

>  <vsurf_DW13>
0.5

>  <vsurf_DW23>
1

>  <vsurf_EDmin1>
-2.59156

>  <vsurf_EDmin2>
-2.58438

>  <vsurf_EDmin3>
-2.57584

>  <vsurf_EWmin1>
-5.75185

>  <vsurf_EWmin2>
-5.59388

>  <vsurf_EWmin3>
-5.44143

>  <vsurf_G>
1.37314

>  <vsurf_HB1>
404.125

>  <vsurf_HB2>
507.25

>  <vsurf_HB3>
406.75

>  <vsurf_HB4>
151.625

>  <vsurf_HB5>
46

>  <vsurf_HB6>
9.75

>  <vsurf_HB7>
0.75

>  <vsurf_HB8>
0

>  <vsurf_HL1>
0.135241

>  <vsurf_HL2>
0.0364372

>  <vsurf_ID1>
0.732725

>  <vsurf_ID2>
0.906529

>  <vsurf_ID3>
0.870354

>  <vsurf_ID4>
0.821457

>  <vsurf_ID5>
0.866799

>  <vsurf_ID6>
1.01965

>  <vsurf_ID7>
1.57676

>  <vsurf_ID8>
2.35911

>  <vsurf_IW1>
0.867359

>  <vsurf_IW2>
1.17834

>  <vsurf_IW3>
1.31898

>  <vsurf_IW4>
1.61553

>  <vsurf_IW5>
2.00338

>  <vsurf_IW6>
2.51157

>  <vsurf_IW7>
3.43371

>  <vsurf_IW8>
0

>  <vsurf_R>
1.41003

>  <vsurf_S>
582.169

>  <vsurf_V>
820.875

>  <vsurf_W1>
1532.38

>  <vsurf_W2>
974

>  <vsurf_W3>
501

>  <vsurf_W4>
167.5

>  <vsurf_W5>
52

>  <vsurf_W6>
11.25

>  <vsurf_W7>
0.75

>  <vsurf_W8>
0

>  <vsurf_Wp1>
1128.25

>  <vsurf_Wp2>
466.75

>  <vsurf_Wp3>
94.25

>  <vsurf_Wp4>
15.875

>  <vsurf_Wp5>
6

>  <vsurf_Wp6>
1.5

>  <vsurf_Wp7>
0

>  <vsurf_Wp8>
0

>  <dens>
1.14225

>  <glob>
0.0538769

>  <std_dim1>
4.70353

>  <std_dim2>
1.36963

>  <std_dim3>
1.09175

>  <vol>
345.25

>  <logP(o/w)>
0.488

$$$$
D9.cdx
  MOE2008           3D

 43 46  0  0  0  0  0  0  0  0999 V2000
   -7.6380   17.8790   -0.5170 C   0  0  0  0  0  0  0  0  0  0  0  0
   -8.2410   18.7640   -0.7010 H   0  0  0  0  0  0  0  0  0  0  0  0
   -8.2060   16.7510    0.0660 C   0  0  0  0  0  0  0  0  0  0  0  0
   -9.2590   16.7570    0.3370 H   0  0  0  0  0  0  0  0  0  0  0  0
   -7.4400   15.6080    0.3070 C   0  0  0  0  0  0  0  0  0  0  0  0
   -7.8880   14.7280    0.7600 H   0  0  0  0  0  0  0  0  0  0  0  0
   -6.0870   15.6370   -0.0560 C   0  0  0  0  0  0  0  0  0  0  0  0
   -5.4800   16.7510   -0.6460 C   0  0  0  0  0  0  0  0  0  0  0  0
   -6.2870   17.8880   -0.8720 C   0  0  0  0  0  0  0  0  0  0  0  0
   -5.1250   14.6640    0.0660 N   0  0  0  0  0  0  0  0  0  0  0  0
   -5.2820   13.7450    0.4580 H   0  0  0  0  0  0  0  0  0  0  0  0
   -3.9300   15.1200   -0.4190 C   0  0  0  0  0  0  0  0  0  0  0  0
   -3.0600   14.4740   -0.4040 H   0  0  0  0  0  0  0  0  0  0  0  0
   -4.1030   16.4140   -0.8790 C   0  0  0  0  0  0  0  0  0  0  0  0
   -3.0520   17.2330   -1.4760 C   0  0  0  0  0  0  0  0  0  0  0  0
   -1.6480   16.6740   -1.6110 C   0  0  0  0  0  0  0  0  0  0  0  0
   -0.7000   17.1040   -0.6870 N   0  0  0  0  0  0  0  0  0  0  0  0
    0.6690   16.5970   -0.7650 C   0  0  0  0  0  0  0  0  0  0  0  0
    0.8320   15.9890    0.1340 H   0  0  0  0  0  0  0  0  0  0  0  0
    0.8010   15.9440   -1.6340 H   0  0  0  0  0  0  0  0  0  0  0  0
    1.6910   17.7430   -0.8130 C   0  0  0  0  0  0  0  0  0  0  0  0
    1.6150   18.2780   -1.7670 H   0  0  0  0  0  0  0  0  0  0  0  0
    2.6890   17.3090   -0.7360 H   0  0  0  0  0  0  0  0  0  0  0  0
    1.4450   18.7300    0.2530 N   0  0  0  0  0  0  0  0  0  0  0  0
    0.0600   19.2140    0.3370 C   0  0  0  0  0  0  0  0  0  0  0  0
   -0.0800   19.8790    1.1960 H   0  0  0  0  0  0  0  0  0  0  0  0
   -0.1180   19.8080   -0.5680 H   0  0  0  0  0  0  0  0  0  0  0  0
   -0.9420   18.0570    0.4040 C   0  0  0  0  0  0  0  0  0  0  0  0
   -1.9620   18.4450    0.3870 H   0  0  0  0  0  0  0  0  0  0  0  0
   -0.8140   17.5030    1.3420 H   0  0  0  0  0  0  0  0  0  0  0  0
    2.3880   19.2130    1.1640 C   0  0  0  0  0  0  0  0  0  0  0  0
    3.8000   18.9960    0.8920 C   0  0  0  0  0  0  0  0  0  0  0  0
   -3.2240   18.3780   -1.8820 O   0  0  0  0  0  0  0  0  0  0  0  0
   -1.4430   15.8760   -2.5180 O   0  0  0  0  0  0  0  0  0  0  0  0
    2.0570   19.8130    2.1860 O   0  0  0  0  0  0  0  0  0  0  0  0
    4.4560   19.1500   -0.3130 C   0  0  0  0  0  0  0  0  0  0  0  0
    4.1370   19.4240   -1.3090 H   0  0  0  0  0  0  0  0  0  0  0  0
    5.7850   18.9070   -0.1790 O   0  0  0  0  0  0  0  0  0  0  0  0
    6.0030   18.6290    1.1320 C   0  0  0  0  0  0  0  0  0  0  0  0
    7.0290   18.4250    1.4030 H   0  0  0  0  0  0  0  0  0  0  0  0
    4.8240   18.6890    1.8350 C   0  0  0  0  0  0  0  0  0  0  0  0
    4.7050   18.5320    2.8990 H   0  0  0  0  0  0  0  0  0  0  0  0
   -5.7940   19.0040   -1.4280 F   0  0  0  0  0  0  0  0  0  0  0  0
  1  2  1  0  0  0  0
  1  3  1  0  0  0  0
  1  9  2  0  0  0  0
  3  4  1  0  0  0  0
  3  5  2  0  0  0  0
  5  6  1  0  0  0  0
  5  7  1  0  0  0  0
  7  8  2  0  0  0  0
  7 10  1  0  0  0  0
  8  9  1  0  0  0  0
  8 14  1  0  0  0  0
  9 43  1  0  0  0  0
 10 11  1  0  0  0  0
 10 12  1  0  0  0  0
 12 13  1  0  0  0  0
 12 14  2  0  0  0  0
 14 15  1  0  0  0  0
 15 16  1  0  0  0  0
 15 33  2  0  0  0  0
 16 17  1  0  0  0  0
 16 34  2  0  0  0  0
 17 18  1  0  0  0  0
 17 28  1  0  0  0  0
 18 19  1  0  0  0  0
 18 20  1  0  0  0  0
 18 21  1  0  0  0  0
 21 22  1  0  0  0  0
 21 23  1  0  0  0  0
 21 24  1  0  0  0  0
 24 25  1  0  0  0  0
 24 31  1  0  0  0  0
 25 26  1  0  0  0  0
 25 27  1  0  0  0  0
 25 28  1  0  0  0  0
 28 29  1  0  0  0  0
 28 30  1  0  0  0  0
 31 32  1  0  0  0  0
 31 35  2  0  0  0  0
 32 36  2  0  0  0  0
 32 41  1  0  0  0  0
 36 37  1  0  0  0  0
 36 38  1  0  0  0  0
 38 39  1  0  0  0  0
 39 40  1  0  0  0  0
 39 41  2  0  0  0  0
 41 42  1  0  0  0  0
M  END
>  <Activity>
7.6903

>  <AM1_dipole>
5.80419

>  <AM1_E>
-116160

>  <AM1_Eele>
-807386

>  <AM1_HF>
-45.0441

>  <AM1_HOMO>
-8.8382

>  <AM1_IP>
8.8382

>  <AM1_LUMO>
-0.57805

>  <diameter>
14

>  <petitjean>
0.5

>  <petitjeanSC>
1

>  <radius>
7

>  <VDistEq>
3.60077

>  <VDistMa>
9.1899

>  <weinerPath>
1979

>  <weinerPol>
44

>  <BCUT_PEOE_0>
-2.71104

>  <BCUT_PEOE_1>
-0.639674

>  <BCUT_PEOE_2>
0.645469

>  <BCUT_PEOE_3>
2.65107

>  <BCUT_SLOGP_0>
-2.85987

>  <BCUT_SLOGP_1>
-0.587486

>  <BCUT_SLOGP_2>
0.775271

>  <BCUT_SLOGP_3>
2.50305

>  <BCUT_SMR_0>
-2.43178

>  <BCUT_SMR_1>
-0.433252

>  <BCUT_SMR_2>
0.825839

>  <BCUT_SMR_3>
2.92019

>  <GCUT_PEOE_0>
-0.859949

>  <GCUT_PEOE_1>
-0.40371

>  <GCUT_PEOE_2>
0.0872697

>  <GCUT_PEOE_3>
2.63016

>  <GCUT_SLOGP_0>
-0.976486

>  <GCUT_SLOGP_1>
-0.33661

>  <GCUT_SLOGP_2>
0.231078

>  <GCUT_SLOGP_3>
2.59977

>  <GCUT_SMR_0>
-0.508896

>  <GCUT_SMR_1>
-0.2333

>  <GCUT_SMR_2>
0.241816

>  <GCUT_SMR_3>
2.89397

>  <a_aro>
14

>  <a_count>
43

>  <a_IC>
75.8639

>  <a_ICM>
1.76428

>  <a_nH>
16

>  <b_1rotN>
5

>  <b_1rotR>
0.166667

>  <b_ar>
15

>  <b_count>
46

>  <b_double>
3

>  <b_rotN>
5

>  <b_rotR>
0.166667

>  <b_single>
28

>  <b_triple>
0

>  <chi0v>
14.2753

>  <chi0v_C>
10.8699

>  <chi1v>
8.46693

>  <chi1v_C>
4.94338

>  <chiral>
0

>  <chiral_u>
0

>  <nmol>
1

>  <reactive>
0

>  <rings>
4

>  <Weight>
369.352

>  <a_heavy>
27

>  <a_nB>
0

>  <a_nBr>
0

>  <a_nC>
19

>  <a_nCl>
0

>  <a_nF>
1

>  <a_nI>
0

>  <a_nN>
3

>  <a_nO>
4

>  <a_nP>
0

>  <a_nS>
0

>  <b_heavy>
30

>  <chi0>
18.9659

>  <chi0_C>
12.397

>  <chi1>
13.0586

>  <chi1_C>
6.54124

>  <FCharge>
0

>  <VAdjEq>
0.410248

>  <VAdjMa>
5.90689

>  <zagreb>
146

>  <balabanJ>
1.30375

>  <PEOE_PC+>
2.64651

>  <PEOE_PC->
-2.64651

>  <PEOE_RPC+>
0.111506

>  <PEOE_RPC->
0.17769

>  <PEOE_VSA+0>
78.4233

>  <PEOE_VSA+1>
78.372

>  <PEOE_VSA+2>
36.0565

>  <PEOE_VSA+3>
8.61901

>  <PEOE_VSA+4>
0

>  <PEOE_VSA+5>
34.3576

>  <PEOE_VSA+6>
0

>  <PEOE_VSA-0>
36.7647

>  <PEOE_VSA-1>
12.2549

>  <PEOE_VSA-2>
0

>  <PEOE_VSA-3>
0

>  <PEOE_VSA-4>
11.9086

>  <PEOE_VSA-5>
40.7008

>  <PEOE_VSA-6>
2.64065

>  <PEOE_VSA_FHYD>
0.736524

>  <PEOE_VSA_FNEG>
0.306587

>  <PEOE_VSA_FPNEG>
0.162453

>  <PEOE_VSA_FPOL>
0.263476

>  <PEOE_VSA_FPOS>
0.693413

>  <PEOE_VSA_FPPOS>
0.101023

>  <PEOE_VSA_HYD>
250.49

>  <PEOE_VSA_NEG>
104.27

>  <PEOE_VSA_PNEG>
55.25

>  <PEOE_VSA_POL>
89.6076

>  <PEOE_VSA_POS>
235.828

>  <PEOE_VSA_PPOS>
34.3576

>  <PC+>
4.745

>  <PC->
-4.746

>  <Q_PC+>
4.745

>  <Q_PC->
-4.746

>  <Q_RPC+>
0.150896

>  <Q_RPC->
0.139064

>  <Q_VSA_FHYD>
0.542202

>  <Q_VSA_FNEG>
0.49693

>  <Q_VSA_FPNEG>
0.176274

>  <Q_VSA_FPOL>
0.457798

>  <Q_VSA_FPOS>
0.50307

>  <Q_VSA_FPPOS>
0.281524

>  <Q_VSA_HYD>
184.402

>  <Q_VSA_NEG>
169.005

>  <Q_VSA_PNEG>
59.9504

>  <Q_VSA_POL>
155.696

>  <Q_VSA_POS>
171.093

>  <Q_VSA_PPOS>
95.7459

>  <RPC+>
0.150896

>  <RPC->
0.139064

>  <lip_acc>
7

>  <lip_don>
1

>  <lip_druglike>
1

>  <lip_violation>
0

>  <opr_brigid>
21

>  <opr_leadlike>
1

>  <opr_nring>
4

>  <opr_nrot>
5

>  <opr_violation>
0

>  <E>
73.9533

>  <E_ang>
8.4613

>  <E_ele>
27.3734

>  <E_nb>
60.4858

>  <E_oop>
0.0587153

>  <E_sol>
-18.4285

>  <E_stb>
0.03967

>  <E_str>
4.93307

>  <E_strain>
0.00510904

>  <E_tor>
-0.0252932

>  <E_vdw>
33.1124

>  <E_rele>
0

>  <E_rnb>
0

>  <E_rsol>
0

>  <E_rvdw>
0

>  <Kier1>
20.28

>  <Kier2>
8.78853

>  <Kier3>
4.16

>  <KierA1>
14.0544

>  <KierA2>
5.99726

>  <KierA3>
2.80625

>  <KierFlex>
3.12178

>  <logS>
-3.92322

>  <MNDO_dipole>
5.84732

>  <MNDO_E>
-116287

>  <MNDO_Eele>
-800579

>  <MNDO_HF>
-92.7491

>  <MNDO_HOMO>
-8.91386

>  <MNDO_IP>
8.91386

>  <MNDO_LUMO>
-0.65399

>  <apol>
51.1737

>  <bpol>
28.1043

>  <mr>
9.64804

>  <dipole>
1.48663

>  <dipoleX>
-0.28525

>  <dipoleY>
-1.25224

>  <dipoleZ>
0.748739

>  <pmi>
7979.77

>  <pmiX>
6739.02

>  <pmiY>
771.766

>  <pmiZ>
468.993

>  <rgyr>
4.6481

>  <a_acc>
3

>  <a_acid>
0

>  <a_base>
0

>  <a_don>
1

>  <a_hyd>
15

>  <vsa_acc>
40.7008

>  <vsa_acid>
0

>  <vsa_base>
0

>  <vsa_don>
5.68258

>  <vsa_hyd>
198.986

>  <vsa_other>
80.9783

>  <vsa_pol>
46.3833

>  <PM3_dipole>
5.58412

>  <PM3_E>
-106023

>  <PM3_Eele>
-795177

>  <PM3_HF>
-79.4369

>  <PM3_HOMO>
-8.88641

>  <PM3_IP>
8.88641

>  <PM3_LUMO>
-0.65945

>  <SlogP>
2.0673

>  <SlogP_VSA0>
0

>  <SlogP_VSA1>
22.4538

>  <SlogP_VSA2>
49.7688

>  <SlogP_VSA3>
73.7583

>  <SlogP_VSA4>
54.0956

>  <SlogP_VSA5>
9.50735

>  <SlogP_VSA6>
0

>  <SlogP_VSA7>
132.317

>  <SlogP_VSA8>
0

>  <SlogP_VSA9>
14.9601

>  <SMR>
9.37787

>  <SMR_VSA0>
81.094

>  <SMR_VSA1>
21.2087

>  <SMR_VSA2>
25.9065

>  <SMR_VSA3>
6.37115

>  <SMR_VSA4>
4.7171

>  <SMR_VSA5>
127.6

>  <SMR_VSA6>
89.9635

>  <SMR_VSA7>
0

>  <ASA>
598.472

>  <ASA+>
217.725

>  <ASA->
270.997

>  <ASA_H>
428.959

>  <ASA_P>
169.512

>  <CASA+>
1033.11

>  <CASA->
1286.15

>  <DASA>
53.2715

>  <DCASA>
253.044

>  <FASA+>
0.363802

>  <FASA->
0.452815

>  <FASA_H>
0.716758

>  <FASA_P>
0.283242

>  <FCASA+>
1.72624

>  <FCASA->
2.14906

>  <VSA>
359.682

>  <TPSA>
86.62

>  <density>
0.809115

>  <vdw_area>
340.098

>  <vdw_vol>
456.489

>  <vsurf_A>
2.00362

>  <vsurf_CP>
0.107816

>  <vsurf_CW1>
2.71068

>  <vsurf_CW2>
2.27378

>  <vsurf_CW3>
1.48169

>  <vsurf_CW4>
0.680513

>  <vsurf_CW5>
0.258402

>  <vsurf_CW6>
0.0679103

>  <vsurf_CW7>
0.00604885

>  <vsurf_CW8>
0

>  <vsurf_D1>
781.625

>  <vsurf_D2>
457.5

>  <vsurf_D3>
337.125

>  <vsurf_D4>
282.75

>  <vsurf_D5>
232

>  <vsurf_D6>
183.125

>  <vsurf_D7>
107.25

>  <vsurf_D8>
61.5

>  <vsurf_DD12>
0.5

>  <vsurf_DD13>
0.707107

>  <vsurf_DD23>
0.5

>  <vsurf_DW12>
5.31507

>  <vsurf_DW13>
0.5

>  <vsurf_DW23>
5.70088

>  <vsurf_EDmin1>
-2.65248

>  <vsurf_EDmin2>
-2.5933

>  <vsurf_EDmin3>
-2.56031

>  <vsurf_EWmin1>
-5.3955

>  <vsurf_EWmin2>
-5.3837

>  <vsurf_EWmin3>
-5.31528

>  <vsurf_G>
1.3376

>  <vsurf_HB1>
323

>  <vsurf_HB2>
420.375

>  <vsurf_HB3>
342.25

>  <vsurf_HB4>
122.875

>  <vsurf_HB5>
36

>  <vsurf_HB6>
9

>  <vsurf_HB7>
1

>  <vsurf_HB8>
0

>  <vsurf_HL1>
0.126066

>  <vsurf_HL2>
0.0375774

>  <vsurf_ID1>
0.732911

>  <vsurf_ID2>
0.784344

>  <vsurf_ID3>
0.870033

>  <vsurf_ID4>
0.925284

>  <vsurf_ID5>
1.01277

>  <vsurf_ID6>
1.10705

>  <vsurf_ID7>
1.05678

>  <vsurf_ID8>
1.27826

>  <vsurf_IW1>
0.187113

>  <vsurf_IW2>
0.346865

>  <vsurf_IW3>
0.612279

>  <vsurf_IW4>
1.12911

>  <vsurf_IW5>
1.15484

>  <vsurf_IW6>
1.53398

>  <vsurf_IW7>
3.4889

>  <vsurf_IW8>
0

>  <vsurf_R>
1.41595

>  <vsurf_S>
542.656

>  <vsurf_V>
768.375

>  <vsurf_W1>
1332.63

>  <vsurf_W2>
830.125

>  <vsurf_W3>
417.75

>  <vsurf_W4>
139.375

>  <vsurf_W5>
42.5

>  <vsurf_W6>
10.625

>  <vsurf_W7>
1

>  <vsurf_W8>
0

>  <vsurf_Wp1>
1009.63

>  <vsurf_Wp2>
409.75

>  <vsurf_Wp3>
75.5

>  <vsurf_Wp4>
16.5

>  <vsurf_Wp5>
6.5

>  <vsurf_Wp6>
1.625

>  <vsurf_Wp7>
0

>  <vsurf_Wp8>
0

>  <dens>
1.12308

>  <glob>
0.057321

>  <std_dim1>
4.52056

>  <std_dim2>
1.33942

>  <std_dim3>
1.0823

>  <vol>
328.875

>  <logP(o/w)>
1.069

$$$$
D9.cdx
  MOE2008           3D

 43 46  0  0  0  0  0  0  0  0999 V2000
   -7.6280   13.4260    0.3460 C   0  0  0  0  0  0  0  0  0  0  0  0
   -8.4790   14.0580    0.1110 H   0  0  0  0  0  0  0  0  0  0  0  0
   -7.7680   12.3560    1.2240 C   0  0  0  0  0  0  0  0  0  0  0  0
   -8.7370   12.1530    1.6750 H   0  0  0  0  0  0  0  0  0  0  0  0
   -6.6790   11.5370    1.5320 C   0  0  0  0  0  0  0  0  0  0  0  0
   -6.7910   10.7020    2.2170 H   0  0  0  0  0  0  0  0  0  0  0  0
   -5.4480   11.8260    0.9280 C   0  0  0  0  0  0  0  0  0  0  0  0
   -5.2680   12.8930    0.0410 C   0  0  0  0  0  0  0  0  0  0  0  0
   -6.3910   13.7000   -0.2440 C   0  0  0  0  0  0  0  0  0  0  0  0
   -4.2380   11.1870    1.0510 N   0  0  0  0  0  0  0  0  0  0  0  0
   -4.0720   10.3770    1.6330 H   0  0  0  0  0  0  0  0  0  0  0  0
   -3.2980   11.8050    0.2740 C   0  0  0  0  0  0  0  0  0  0  0  0
   -2.2840   11.4240    0.2490 H   0  0  0  0  0  0  0  0  0  0  0  0
   -3.8920   12.8750   -0.3730 C   0  0  0  0  0  0  0  0  0  0  0  0
   -3.2030   13.7810   -1.2860 C   0  0  0  0  0  0  0  0  0  0  0  0
   -1.7580   13.5110   -1.6600 C   0  0  0  0  0  0  0  0  0  0  0  0
   -0.7780   14.2320   -0.9820 N   0  0  0  0  0  0  0  0  0  0  0  0
    0.6340   14.0190   -1.3110 C   0  0  0  0  0  0  0  0  0  0  0  0
    0.7520   13.1970   -2.0240 H   0  0  0  0  0  0  0  0  0  0  0  0
    0.9900   14.9360   -1.7950 H   0  0  0  0  0  0  0  0  0  0  0  0
    1.4550   13.7360   -0.0480 C   0  0  0  0  0  0  0  0  0  0  0  0
    2.5110   13.6220   -0.2940 H   0  0  0  0  0  0  0  0  0  0  0  0
    1.1310   12.7860    0.3960 H   0  0  0  0  0  0  0  0  0  0  0  0
    1.2200   14.7700    0.9730 N   0  0  0  0  0  0  0  0  0  0  0  0
   -0.1930   14.9690    1.3150 C   0  0  0  0  0  0  0  0  0  0  0  0
   -0.5340   14.0490    1.8050 H   0  0  0  0  0  0  0  0  0  0  0  0
   -0.3220   15.7910    2.0260 H   0  0  0  0  0  0  0  0  0  0  0  0
   -1.0350   15.2390    0.0590 C   0  0  0  0  0  0  0  0  0  0  0  0
   -0.7620   16.2100   -0.3720 H   0  0  0  0  0  0  0  0  0  0  0  0
   -2.0920   15.2810    0.3290 H   0  0  0  0  0  0  0  0  0  0  0  0
    2.2000   15.5170    1.6370 C   0  0  0  0  0  0  0  0  0  0  0  0
    3.5610   15.4450    1.1390 C   0  0  0  0  0  0  0  0  0  0  0  0
   -3.7170   14.7810   -1.7780 O   0  0  0  0  0  0  0  0  0  0  0  0
   -1.5480   12.6660   -2.5240 O   0  0  0  0  0  0  0  0  0  0  0  0
    1.9120   16.2230    2.6050 O   0  0  0  0  0  0  0  0  0  0  0  0
    4.8170   15.0030    2.2150 S   0  0  0  0  0  0  0  0  0  0  0  0
    6.0040   15.1610    0.9930 C   0  0  0  0  0  0  0  0  0  0  0  0
    7.0430   14.9590    1.2150 H   0  0  0  0  0  0  0  0  0  0  0  0
    5.4620   15.5690   -0.2050 C   0  0  0  0  0  0  0  0  0  0  0  0
    6.0510   15.7420   -1.0970 H   0  0  0  0  0  0  0  0  0  0  0  0
    4.0500   15.7470   -0.1190 C   0  0  0  0  0  0  0  0  0  0  0  0
    3.4270   16.0830   -0.9390 H   0  0  0  0  0  0  0  0  0  0  0  0
   -6.3150   14.7430   -1.0820 F   0  0  0  0  0  0  0  0  0  0  0  0
  1  2  1  0  0  0  0
  1  3  1  0  0  0  0
  1  9  2  0  0  0  0
  3  4  1  0  0  0  0
  3  5  2  0  0  0  0
  5  6  1  0  0  0  0
  5  7  1  0  0  0  0
  7  8  2  0  0  0  0
  7 10  1  0  0  0  0
  8  9  1  0  0  0  0
  8 14  1  0  0  0  0
  9 43  1  0  0  0  0
 10 11  1  0  0  0  0
 10 12  1  0  0  0  0
 12 13  1  0  0  0  0
 12 14  2  0  0  0  0
 14 15  1  0  0  0  0
 15 16  1  0  0  0  0
 15 33  2  0  0  0  0
 16 17  1  0  0  0  0
 16 34  2  0  0  0  0
 17 18  1  0  0  0  0
 17 28  1  0  0  0  0
 18 19  1  0  0  0  0
 18 20  1  0  0  0  0
 18 21  1  0  0  0  0
 21 22  1  0  0  0  0
 21 23  1  0  0  0  0
 21 24  1  0  0  0  0
 24 25  1  0  0  0  0
 24 31  1  0  0  0  0
 25 26  1  0  0  0  0
 25 27  1  0  0  0  0
 25 28  1  0  0  0  0
 28 29  1  0  0  0  0
 28 30  1  0  0  0  0
 31 32  1  0  0  0  0
 31 35  2  0  0  0  0
 32 36  1  0  0  0  0
 32 41  2  0  0  0  0
 36 37  1  0  0  0  0
 37 38  1  0  0  0  0
 37 39  2  0  0  0  0
 39 40  1  0  0  0  0
 39 41  1  0  0  0  0
 41 42  1  0  0  0  0
M  END
>  <Activity>
9.1549

>  <AM1_dipole>
6.47945

>  <AM1_E>
-113272

>  <AM1_Eele>
-805586

>  <AM1_HF>
-33.1881

>  <AM1_HOMO>
-8.87844

>  <AM1_IP>
8.87844

>  <AM1_LUMO>
-0.63522

>  <diameter>
14

>  <petitjean>
0.5

>  <petitjeanSC>
1

>  <radius>
7

>  <VDistEq>
3.60077

>  <VDistMa>
9.1899

>  <weinerPath>
1979

>  <weinerPol>
44

>  <BCUT_PEOE_0>
-2.71182

>  <BCUT_PEOE_1>
-0.603453

>  <BCUT_PEOE_2>
0.645229

>  <BCUT_PEOE_3>
2.64935

>  <BCUT_SLOGP_0>
-2.85955

>  <BCUT_SLOGP_1>
-0.486092

>  <BCUT_SLOGP_2>
0.773503

>  <BCUT_SLOGP_3>
2.5043

>  <BCUT_SMR_0>
-2.43144

>  <BCUT_SMR_1>
-0.433189

>  <BCUT_SMR_2>
0.825495

>  <BCUT_SMR_3>
2.92049

>  <GCUT_PEOE_0>
-0.859949

>  <GCUT_PEOE_1>
-0.404617

>  <GCUT_PEOE_2>
0.0872674

>  <GCUT_PEOE_3>
2.62315

>  <GCUT_SLOGP_0>
-0.976481

>  <GCUT_SLOGP_1>
-0.336616

>  <GCUT_SLOGP_2>
0.244367

>  <GCUT_SLOGP_3>
2.60435

>  <GCUT_SMR_0>
-0.508737

>  <GCUT_SMR_1>
-0.198002

>  <GCUT_SMR_2>
0.241823

>  <GCUT_SMR_3>
2.89714

>  <a_aro>
14

>  <a_count>
43

>  <a_IC>
79.109

>  <a_ICM>
1.83974

>  <a_nH>
16

>  <b_1rotN>
5

>  <b_1rotR>
0.166667

>  <b_ar>
15

>  <b_count>
46

>  <b_double>
3

>  <b_rotN>
5

>  <b_rotR>
0.166667

>  <b_single>
28

>  <b_triple>
0

>  <chi0v>
15.0918

>  <chi0v_C>
10.8699

>  <chi1v>
9.35967

>  <chi1v_C>
4.98803

>  <chiral>
0

>  <chiral_u>
0

>  <nmol>
1

>  <reactive>
0

>  <rings>
4

>  <Weight>
385.419

>  <a_heavy>
27

>  <a_nB>
0

>  <a_nBr>
0

>  <a_nC>
19

>  <a_nCl>
0

>  <a_nF>
1

>  <a_nI>
0

>  <a_nN>
3

>  <a_nO>
3

>  <a_nP>
0

>  <a_nS>
1

>  <b_heavy>
30

>  <chi0>
18.9659

>  <chi0_C>
12.397

>  <chi1>
13.0586

>  <chi1_C>
6.63299

>  <FCharge>
0

>  <VAdjEq>
0.410248

>  <VAdjMa>
5.90689

>  <zagreb>
146

>  <balabanJ>
1.30373

>  <PEOE_PC+>
2.42336

>  <PEOE_PC->
-2.42336

>  <PEOE_RPC+>
0.121773

>  <PEOE_RPC->
0.148502

>  <PEOE_VSA+0>
82.6887

>  <PEOE_VSA+1>
61.9239

>  <PEOE_VSA+2>
9.02085

>  <PEOE_VSA+3>
28.3796

>  <PEOE_VSA+4>
12.9495

>  <PEOE_VSA+5>
21.4081

>  <PEOE_VSA+6>
0

>  <PEOE_VSA-0>
28.6944

>  <PEOE_VSA-1>
36.7647

>  <PEOE_VSA-2>
14.231

>  <PEOE_VSA-3>
0

>  <PEOE_VSA-4>
11.9086

>  <PEOE_VSA-5>
40.7008

>  <PEOE_VSA-6>
0.136891

>  <PEOE_VSA_FHYD>
0.750281

>  <PEOE_VSA_FNEG>
0.379684

>  <PEOE_VSA_FPNEG>
0.151219

>  <PEOE_VSA_FPOL>
0.249719

>  <PEOE_VSA_FPOS>
0.620316

>  <PEOE_VSA_FPPOS>
0.0985002

>  <PEOE_VSA_HYD>
261.703

>  <PEOE_VSA_NEG>
132.436

>  <PEOE_VSA_PNEG>
52.7463

>  <PEOE_VSA_POL>
87.1039

>  <PEOE_VSA_POS>
216.371

>  <PEOE_VSA_PPOS>
34.3576

>  <PC+>
4.744

>  <PC->
-4.745

>  <Q_PC+>
4.744

>  <Q_PC->
-4.745

>  <Q_RPC+>
0.150717

>  <Q_RPC->
0.139094

>  <Q_VSA_FHYD>
0.56081

>  <Q_VSA_FNEG>
0.509491

>  <Q_VSA_FPNEG>
0.164695

>  <Q_VSA_FPOL>
0.43919

>  <Q_VSA_FPOS>
0.490509

>  <Q_VSA_FPPOS>
0.274495

>  <Q_VSA_HYD>
195.615

>  <Q_VSA_NEG>
177.714

>  <Q_VSA_PNEG>
57.4467

>  <Q_VSA_POL>
153.193

>  <Q_VSA_POS>
171.093

>  <Q_VSA_PPOS>
95.7459

>  <RPC+>
0.150717

>  <RPC->
0.139094

>  <lip_acc>
6

>  <lip_don>
1

>  <lip_druglike>
1

>  <lip_violation>
0

>  <opr_brigid>
21

>  <opr_leadlike>
1

>  <opr_nring>
4

>  <opr_nrot>
5

>  <opr_violation>
0

>  <E>
79.9304

>  <E_ang>
10.1794

>  <E_ele>
31.0887

>  <E_nb>
63.1774

>  <E_oop>
0.0737993

>  <E_sol>
-19.9606

>  <E_stb>
-0.280884

>  <E_str>
5.19361

>  <E_strain>
0.00301851

>  <E_tor>
1.58709

>  <E_vdw>
32.0887

>  <E_rele>
0

>  <E_rnb>
-3.55271e-014

>  <E_rsol>
-3.55271e-014

>  <E_rvdw>
0

>  <Kier1>
20.28

>  <Kier2>
8.78853

>  <Kier3>
4.16

>  <KierA1>
14.979

>  <KierA2>
6.40987

>  <KierA3>
3.00569

>  <KierFlex>
3.55605

>  <logS>
-4.13124

>  <MNDO_dipole>
5.29848

>  <MNDO_E>
-114140

>  <MNDO_Eele>
-797154

>  <MNDO_HF>
-56.5889

>  <MNDO_HOMO>
-8.89686

>  <MNDO_IP>
8.89686

>  <MNDO_LUMO>
-0.66734

>  <apol>
53.2717

>  <bpol>
28.4683

>  <mr>
10.2201

>  <dipole>
1.22013

>  <dipoleX>
0.358928

>  <dipoleY>
-1.07057

>  <dipoleZ>
0.462365

>  <pmi>
8259.97

>  <pmiX>
6795.22

>  <pmiY>
759.384

>  <pmiZ>
705.362

>  <rgyr>
4.62938

>  <a_acc>
3

>  <a_acid>
0

>  <a_base>
0

>  <a_don>
1

>  <a_hyd>
18

>  <vsa_acc>
40.7008

>  <vsa_acid>
0

>  <vsa_base>
0

>  <vsa_don>
5.68258

>  <vsa_hyd>
254.316

>  <vsa_other>
34.3576

>  <vsa_pol>
46.3833

>  <PM3_dipole>
5.49349

>  <PM3_E>
-103549

>  <PM3_Eele>
-795824

>  <PM3_HF>
-64.7629

>  <PM3_HOMO>
-8.94159

>  <PM3_IP>
8.94159

>  <PM3_LUMO>
-0.73897

>  <SlogP>
2.5358

>  <SlogP_VSA0>
0

>  <SlogP_VSA1>
22.4538

>  <SlogP_VSA2>
49.7688

>  <SlogP_VSA3>
73.7583

>  <SlogP_VSA4>
52.2684

>  <SlogP_VSA5>
0

>  <SlogP_VSA6>
0

>  <SlogP_VSA7>
125.963

>  <SlogP_VSA8>
0

>  <SlogP_VSA9>
46.2378

>  <SMR>
9.93897

>  <SMR_VSA0>
71.5866

>  <SMR_VSA1>
21.2087

>  <SMR_VSA2>
25.9065

>  <SMR_VSA3>
4.54398

>  <SMR_VSA4>
4.7171

>  <SMR_VSA5>
121.246

>  <SMR_VSA6>
89.9635

>  <SMR_VSA7>
31.2777

>  <ASA>
596.319

>  <ASA+>
216.502

>  <ASA->
281.464

>  <ASA_H>
433.877

>  <ASA_P>
162.442

>  <CASA+>
1027.09

>  <CASA->
1335.55

>  <DASA>
64.9616

>  <DCASA>
308.46

>  <FASA+>
0.363065

>  <FASA->
0.472002

>  <FASA_H>
0.727591

>  <FASA_P>
0.272409

>  <FCASA+>
1.72238

>  <FCASA->
2.23965

>  <VSA>
368.448

>  <TPSA>
73.48

>  <density>
0.823175

>  <vdw_area>
348.807

>  <vdw_vol>
468.21

>  <vsurf_A>
2.18169

>  <vsurf_CP>
0.108166

>  <vsurf_CW1>
2.70563

>  <vsurf_CW2>
2.24056

>  <vsurf_CW3>
1.47131

>  <vsurf_CW4>
0.685788

>  <vsurf_CW5>
0.271449

>  <vsurf_CW6>
0.0742254

>  <vsurf_CW7>
0.00427297

>  <vsurf_CW8>
0

>  <vsurf_D1>
817

>  <vsurf_D2>
478.375

>  <vsurf_D3>
349.625

>  <vsurf_D4>
294.25

>  <vsurf_D5>
251.125

>  <vsurf_D6>
204.875

>  <vsurf_D7>
120.25

>  <vsurf_D8>
63.875

>  <vsurf_DD12>
0.707107

>  <vsurf_DD13>
0.866025

>  <vsurf_DD23>
0.5

>  <vsurf_DW12>
5.76628

>  <vsurf_DW13>
5.22015

>  <vsurf_DW23>
0.707107

>  <vsurf_EDmin1>
-2.78739

>  <vsurf_EDmin2>
-2.76149

>  <vsurf_EDmin3>
-2.66479

>  <vsurf_EWmin1>
-5.34327

>  <vsurf_EWmin2>
-5.32308

>  <vsurf_EWmin3>
-5.29175

>  <vsurf_G>
1.32791

>  <vsurf_HB1>
316.5

>  <vsurf_HB2>
411.125

>  <vsurf_HB3>
351.75

>  <vsurf_HB4>
130.125

>  <vsurf_HB5>
40.125

>  <vsurf_HB6>
9.375

>  <vsurf_HB7>
1

>  <vsurf_HB8>
0

>  <vsurf_HL1>
0.131927

>  <vsurf_HL2>
0.0373832

>  <vsurf_ID1>
0.700296

>  <vsurf_ID2>
0.823587

>  <vsurf_ID3>
0.77378

>  <vsurf_ID4>
0.756761

>  <vsurf_ID5>
0.794447

>  <vsurf_ID6>
0.840183

>  <vsurf_ID7>
0.992619

>  <vsurf_ID8>
1.16712

>  <vsurf_IW1>
0.148108

>  <vsurf_IW2>
0.13202

>  <vsurf_IW3>
0.600537

>  <vsurf_IW4>
1.41958

>  <vsurf_IW5>
1.41979

>  <vsurf_IW6>
1.65773

>  <vsurf_IW7>
4.173

>  <vsurf_IW8>
0

>  <vsurf_R>
1.43825

>  <vsurf_S>
547.802

>  <vsurf_V>
787.875

>  <vsurf_W1>
1360.38

>  <vsurf_W2>
837.75

>  <vsurf_W3>
430.625

>  <vsurf_W4>
146

>  <vsurf_W5>
46.125

>  <vsurf_W6>
11

>  <vsurf_W7>
1

>  <vsurf_W8>
0

>  <vsurf_Wp1>
1043.88

>  <vsurf_Wp2>
426.625

>  <vsurf_Wp3>
78.875

>  <vsurf_Wp4>
15.875

>  <vsurf_Wp5>
6

>  <vsurf_Wp6>
1.625

>  <vsurf_Wp7>
0

>  <vsurf_Wp8>
0

>  <dens>
1.13777

>  <glob>
0.0688778

>  <std_dim1>
4.37966

>  <std_dim2>
1.31169

>  <std_dim3>
1.14942

>  <vol>
338.75

>  <logP(o/w)>
1.764

$$$$
D9.cdx
  MOE2008           3D

 43 46  0  0  0  0  0  0  0  0999 V2000
   -7.2690    3.4630    0.0500 C   0  0  0  0  0  0  0  0  0  0  0  0
   -7.9200    4.2860    0.3310 H   0  0  0  0  0  0  0  0  0  0  0  0
   -7.7650    2.3960   -0.6910 C   0  0  0  0  0  0  0  0  0  0  0  0
   -8.8110    2.3870   -0.9880 H   0  0  0  0  0  0  0  0  0  0  0  0
   -6.9370    1.3320   -1.0570 C   0  0  0  0  0  0  0  0  0  0  0  0
   -7.3280    0.4990   -1.6340 H   0  0  0  0  0  0  0  0  0  0  0  0
   -5.5950    1.3770   -0.6540 C   0  0  0  0  0  0  0  0  0  0  0  0
   -5.0590    2.4320    0.0920 C   0  0  0  0  0  0  0  0  0  0  0  0
   -5.9270    3.4890    0.4420 C   0  0  0  0  0  0  0  0  0  0  0  0
   -4.5810    0.4760   -0.8750 N   0  0  0  0  0  0  0  0  0  0  0  0
   -4.6840   -0.3900   -1.3880 H   0  0  0  0  0  0  0  0  0  0  0  0
   -3.4220    0.9210   -0.3010 C   0  0  0  0  0  0  0  0  0  0  0  0
   -2.5200    0.3260   -0.3770 H   0  0  0  0  0  0  0  0  0  0  0  0
   -3.6710    2.1340    0.3180 C   0  0  0  0  0  0  0  0  0  0  0  0
   -2.6770    2.9170    1.0450 C   0  0  0  0  0  0  0  0  0  0  0  0
   -1.2500    2.4120    1.1470 C   0  0  0  0  0  0  0  0  0  0  0  0
   -0.3050    3.0020    0.3140 N   0  0  0  0  0  0  0  0  0  0  0  0
    1.0860    2.5530    0.3630 C   0  0  0  0  0  0  0  0  0  0  0  0
    1.2300    1.7970    1.1410 H   0  0  0  0  0  0  0  0  0  0  0  0
    1.3000    2.0800   -0.6030 H   0  0  0  0  0  0  0  0  0  0  0  0
    2.0460    3.7290    0.5940 C   0  0  0  0  0  0  0  0  0  0  0  0
    3.0690    3.3590    0.4990 H   0  0  0  0  0  0  0  0  0  0  0  0
    1.9160    4.1310    1.6050 H   0  0  0  0  0  0  0  0  0  0  0  0
    1.7780    4.8350   -0.3420 N   0  0  0  0  0  0  0  0  0  0  0  0
    0.3730    5.2630   -0.4040 C   0  0  0  0  0  0  0  0  0  0  0  0
    0.1450    5.7240    0.5650 H   0  0  0  0  0  0  0  0  0  0  0  0
    0.2190    6.0260   -1.1730 H   0  0  0  0  0  0  0  0  0  0  0  0
   -0.5690    4.0790   -0.6500 C   0  0  0  0  0  0  0  0  0  0  0  0
   -0.3930    3.6600   -1.6480 H   0  0  0  0  0  0  0  0  0  0  0  0
   -1.6070    4.4140   -0.6120 H   0  0  0  0  0  0  0  0  0  0  0  0
    2.7260    5.4780   -1.1500 C   0  0  0  0  0  0  0  0  0  0  0  0
    4.1320    5.2350   -0.8720 C   0  0  0  0  0  0  0  0  0  0  0  0
   -2.9150    3.9900    1.5910 O   0  0  0  0  0  0  0  0  0  0  0  0
   -1.0230    1.5140    1.9510 O   0  0  0  0  0  0  0  0  0  0  0  0
    2.3760    6.2350   -2.0560 O   0  0  0  0  0  0  0  0  0  0  0  0
    5.1840    4.8480   -2.1740 S   0  0  0  0  0  0  0  0  0  0  0  0
    6.5040    4.7580   -1.1330 C   0  0  0  0  0  0  0  0  0  0  0  0
    6.2130    5.0280    0.1760 C   0  0  0  0  0  0  0  0  0  0  0  0
    6.9350    5.0300    0.9830 H   0  0  0  0  0  0  0  0  0  0  0  0
    4.8230    5.3220    0.3260 C   0  0  0  0  0  0  0  0  0  0  0  0
    4.3560    5.5880    1.2670 H   0  0  0  0  0  0  0  0  0  0  0  0
    8.2500    4.3300   -1.7370 Br  0  0  0  0  0  0  0  0  0  0  0  0
   -5.5050    4.5440    1.1520 F   0  0  0  0  0  0  0  0  0  0  0  0
  1  2  1  0  0  0  0
  1  3  1  0  0  0  0
  1  9  2  0  0  0  0
  3  4  1  0  0  0  0
  3  5  2  0  0  0  0
  5  6  1  0  0  0  0
  5  7  1  0  0  0  0
  7  8  2  0  0  0  0
  7 10  1  0  0  0  0
  8  9  1  0  0  0  0
  8 14  1  0  0  0  0
  9 43  1  0  0  0  0
 10 11  1  0  0  0  0
 10 12  1  0  0  0  0
 12 13  1  0  0  0  0
 12 14  2  0  0  0  0
 14 15  1  0  0  0  0
 15 16  1  0  0  0  0
 15 33  2  0  0  0  0
 16 17  1  0  0  0  0
 16 34  2  0  0  0  0
 17 18  1  0  0  0  0
 17 28  1  0  0  0  0
 18 19  1  0  0  0  0
 18 20  1  0  0  0  0
 18 21  1  0  0  0  0
 21 22  1  0  0  0  0
 21 23  1  0  0  0  0
 21 24  1  0  0  0  0
 24 25  1  0  0  0  0
 24 31  1  0  0  0  0
 25 26  1  0  0  0  0
 25 27  1  0  0  0  0
 25 28  1  0  0  0  0
 28 29  1  0  0  0  0
 28 30  1  0  0  0  0
 31 32  1  0  0  0  0
 31 35  2  0  0  0  0
 32 36  1  0  0  0  0
 32 40  2  0  0  0  0
 36 37  1  0  0  0  0
 37 38  2  0  0  0  0
 37 42  1  0  0  0  0
 38 39  1  0  0  0  0
 38 40  1  0  0  0  0
 40 41  1  0  0  0  0
M  END
>  <Activity>
8.4948

>  <AM1_dipole>
5.92135

>  <AM1_E>
-121107

>  <AM1_Eele>
-844859

>  <AM1_HF>
-31.8868

>  <AM1_HOMO>
-8.86369

>  <AM1_IP>
8.86369

>  <AM1_LUMO>
-0.79925

>  <diameter>
15

>  <petitjean>
0.466667

>  <petitjeanSC>
0.875

>  <radius>
8

>  <VDistEq>
3.66293

>  <VDistMa>
9.29236

>  <weinerPath>
2209

>  <weinerPol>
46

>  <BCUT_PEOE_0>
-2.7118

>  <BCUT_PEOE_1>
-0.61025

>  <BCUT_PEOE_2>
0.645226

>  <BCUT_PEOE_3>
2.64941

>  <BCUT_SLOGP_0>
-2.85955

>  <BCUT_SLOGP_1>
-0.423408

>  <BCUT_SLOGP_2>
0.781066

>  <BCUT_SLOGP_3>
2.50534

>  <BCUT_SMR_0>
-2.43144

>  <BCUT_SMR_1>
-0.392305

>  <BCUT_SMR_2>
0.83959

>  <BCUT_SMR_3>
2.9206

>  <GCUT_PEOE_0>
-0.859949

>  <GCUT_PEOE_1>
-0.411034

>  <GCUT_PEOE_2>
0.0872674

>  <GCUT_PEOE_3>
2.62389

>  <GCUT_SLOGP_0>
-0.976481

>  <GCUT_SLOGP_1>
-0.336535

>  <GCUT_SLOGP_2>
0.248148

>  <GCUT_SLOGP_3>
2.61035

>  <GCUT_SMR_0>
-0.508734

>  <GCUT_SMR_1>
-0.182276

>  <GCUT_SMR_2>
0.31922

>  <GCUT_SMR_3>
2.90099

>  <a_aro>
14

>  <a_count>
43

>  <a_IC>
84.5056

>  <a_ICM>
1.96525

>  <a_nH>
15

>  <b_1rotN>
5

>  <b_1rotR>
0.16129

>  <b_ar>
15

>  <b_count>
46

>  <b_double>
3

>  <b_rotN>
5

>  <b_rotR>
0.16129

>  <b_single>
28

>  <b_triple>
0

>  <chi0v>
16.9784

>  <chi0v_C>
10.7925

>  <chi1v>
10.2023

>  <chi1v_C>
4.94338

>  <chiral>
0

>  <chiral_u>
0

>  <nmol>
1

>  <reactive>
0

>  <rings>
4

>  <Weight>
464.315

>  <a_heavy>
28

>  <a_nB>
0

>  <a_nBr>
1

>  <a_nC>
19

>  <a_nCl>
0

>  <a_nF>
1

>  <a_nI>
0

>  <a_nN>
3

>  <a_nO>
3

>  <a_nP>
0

>  <a_nS>
1

>  <b_heavy>
31

>  <chi0>
19.8361

>  <chi0_C>
12.2672

>  <chi1>
13.4524

>  <chi1_C>
6.54124

>  <FCharge>
0

>  <VAdjEq>
0.398935

>  <VAdjMa>
5.9542

>  <zagreb>
152

>  <balabanJ>
1.29471

>  <PEOE_PC+>
2.38824

>  <PEOE_PC->
-2.38824

>  <PEOE_RPC+>
0.123564

>  <PEOE_RPC->
0.150686

>  <PEOE_VSA+0>
78.4233

>  <PEOE_VSA+1>
61.9239

>  <PEOE_VSA+2>
9.02085

>  <PEOE_VSA+3>
28.3796

>  <PEOE_VSA+4>
12.9495

>  <PEOE_VSA+5>
21.4081

>  <PEOE_VSA+6>
0

>  <PEOE_VSA-0>
32.9227

>  <PEOE_VSA-1>
80.3896

>  <PEOE_VSA-2>
0

>  <PEOE_VSA-3>
0

>  <PEOE_VSA-4>
11.9086

>  <PEOE_VSA-5>
40.7008

>  <PEOE_VSA-6>
0.136891

>  <PEOE_VSA_FHYD>
0.769666

>  <PEOE_VSA_FNEG>
0.439118

>  <PEOE_VSA_FPNEG>
0.13948

>  <PEOE_VSA_FPOL>
0.230334

>  <PEOE_VSA_FPOS>
0.560882

>  <PEOE_VSA_FPPOS>
0.0908537

>  <PEOE_VSA_HYD>
291.06

>  <PEOE_VSA_NEG>
166.059

>  <PEOE_VSA_PNEG>
52.7463

>  <PEOE_VSA_POL>
87.1039

>  <PEOE_VSA_POS>
212.105

>  <PEOE_VSA_PPOS>
34.3576

>  <PC+>
4.692

>  <PC->
-4.693

>  <Q_PC+>
4.692

>  <Q_PC->
-4.693

>  <Q_RPC+>
0.152387

>  <Q_RPC->
0.140635

>  <Q_VSA_FHYD>
0.594904

>  <Q_VSA_FNEG>
0.547667

>  <Q_VSA_FPNEG>
0.15191

>  <Q_VSA_FPOL>
0.405096

>  <Q_VSA_FPOS>
0.452333

>  <Q_VSA_FPPOS>
0.253186

>  <Q_VSA_HYD>
224.971

>  <Q_VSA_NEG>
207.108

>  <Q_VSA_PNEG>
57.4467

>  <Q_VSA_POL>
153.193

>  <Q_VSA_POS>
171.056

>  <Q_VSA_PPOS>
95.7459

>  <RPC+>
0.152387

>  <RPC->
0.140635

>  <lip_acc>
6

>  <lip_don>
1

>  <lip_druglike>
1

>  <lip_violation>
0

>  <opr_brigid>
21

>  <opr_leadlike>
1

>  <opr_nring>
4

>  <opr_nrot>
5

>  <opr_violation>
1

>  <E>
78.1155

>  <E_ang>
9.91178

>  <E_ele>
29.7234

>  <E_nb>
62.5623

>  <E_oop>
0.0295637

>  <E_sol>
-17.2965

>  <E_stb>
-0.936227

>  <E_str>
5.68253

>  <E_strain>
0.00317187

>  <E_tor>
0.865518

>  <E_vdw>
32.8389

>  <E_rele>
0

>  <E_rnb>
0

>  <E_rsol>
0

>  <E_rvdw>
0

>  <Kier1>
21.2404

>  <Kier2>
9.01333

>  <Kier3>
4.39646

>  <KierA1>
17.4164

>  <KierA2>
7.33316

>  <KierA3>
3.55709

>  <KierFlex>
4.56133

>  <logS>
-5.53289

>  <MNDO_dipole>
5.43424

>  <MNDO_E>
-121831

>  <MNDO_Eele>
-839922

>  <MNDO_HF>
-53.4414

>  <MNDO_HOMO>
-8.93516

>  <MNDO_IP>
8.93516

>  <MNDO_LUMO>
-0.85541

>  <apol>
55.6549

>  <bpol>
28.6651

>  <mr>
10.9718

>  <dipole>
1.16847

>  <dipoleX>
-0.185924

>  <dipoleY>
-1.10591

>  <dipoleZ>
-0.328204

>  <pmi>
14181.4

>  <pmiX>
12538

>  <pmiY>
1003.36

>  <pmiZ>
640.079

>  <rgyr>
5.52654

>  <a_acc>
3

>  <a_acid>
0

>  <a_base>
0

>  <a_don>
1

>  <a_hyd>
19

>  <vsa_acc>
40.7008

>  <vsa_acid>
0

>  <vsa_base>
0

>  <vsa_don>
5.68258

>  <vsa_hyd>
284.384

>  <vsa_other>
34.3576

>  <vsa_pol>
46.3833

>  <PM3_dipole>
5.29384

>  <PM3_E>
-111338

>  <PM3_Eele>
-832153

>  <PM3_HF>
-51.4724

>  <PM3_HOMO>
-8.91435

>  <PM3_IP>
8.91435

>  <PM3_LUMO>
-1.02809

>  <SlogP>
3.2983

>  <SlogP_VSA0>
0

>  <SlogP_VSA1>
22.4538

>  <SlogP_VSA2>
49.7688

>  <SlogP_VSA3>
73.7583

>  <SlogP_VSA4>
52.2684

>  <SlogP_VSA5>
1.22793

>  <SlogP_VSA6>
0

>  <SlogP_VSA7>
110.147

>  <SlogP_VSA8>
0

>  <SlogP_VSA9>
92.1919

>  <SMR>
10.709

>  <SMR_VSA0>
71.5866

>  <SMR_VSA1>
21.2087

>  <SMR_VSA2>
27.1345

>  <SMR_VSA3>
4.54398

>  <SMR_VSA4>
4.7171

>  <SMR_VSA5>
105.43

>  <SMR_VSA6>
89.9635

>  <SMR_VSA7>
77.2318

>  <ASA>
655.258

>  <ASA+>
198.713

>  <ASA->
347.813

>  <ASA_H>
500.409

>  <ASA_P>
154.849

>  <CASA+>
932.36

>  <CASA->
1632.29

>  <DASA>
149.1

>  <DCASA>
699.927

>  <FASA+>
0.303259

>  <FASA->
0.530804

>  <FASA_H>
0.763683

>  <FASA_P>
0.236317

>  <FCASA+>
1.42289

>  <FCASA->
2.49106

>  <VSA>
398.529

>  <TPSA>
73.48

>  <density>
0.933863

>  <vdw_area>
378.164

>  <vdw_vol>
497.198

>  <vsurf_A>
2.26947

>  <vsurf_CP>
0.112381

>  <vsurf_CW1>
2.68601

>  <vsurf_CW2>
2.23661

>  <vsurf_CW3>
1.39528

>  <vsurf_CW4>
0.625333

>  <vsurf_CW5>
0.247761

>  <vsurf_CW6>
0.0663501

>  <vsurf_CW7>
0.00561354

>  <vsurf_CW8>
0

>  <vsurf_D1>
964.25

>  <vsurf_D2>
557.25

>  <vsurf_D3>
399.25

>  <vsurf_D4>
333.5

>  <vsurf_D5>
284.375

>  <vsurf_D6>
238.875

>  <vsurf_D7>
148.375

>  <vsurf_D8>
84.5

>  <vsurf_DD12>
0.866025

>  <vsurf_DD13>
5.85235

>  <vsurf_DD23>
5.24404

>  <vsurf_DW12>
0.707107

>  <vsurf_DW13>
5.31507

>  <vsurf_DW23>
5.72276

>  <vsurf_EDmin1>
-2.75286

>  <vsurf_EDmin2>
-2.68505

>  <vsurf_EDmin3>
-2.63705

>  <vsurf_EWmin1>
-5.52112

>  <vsurf_EWmin2>
-5.40956

>  <vsurf_EWmin3>
-5.29895

>  <vsurf_G>
1.36664

>  <vsurf_HB1>
324.75

>  <vsurf_HB2>
419

>  <vsurf_HB3>
351

>  <vsurf_HB4>
127.75

>  <vsurf_HB5>
39.75

>  <vsurf_HB6>
8.625

>  <vsurf_HB7>
1.25

>  <vsurf_HB8>
0

>  <vsurf_HL1>
0.11459

>  <vsurf_HL2>
0.0314843

>  <vsurf_ID1>
0.417994

>  <vsurf_ID2>
0.441303

>  <vsurf_ID3>
0.511838

>  <vsurf_ID4>
0.520004

>  <vsurf_ID5>
0.528666

>  <vsurf_ID6>
0.692926

>  <vsurf_ID7>
0.563311

>  <vsurf_ID8>
0.695302

>  <vsurf_IW1>
0.745634

>  <vsurf_IW2>
1.22025

>  <vsurf_IW3>
1.73115

>  <vsurf_IW4>
2.4452

>  <vsurf_IW5>
2.08419

>  <vsurf_IW6>
1.81722

>  <vsurf_IW7>
2.69142

>  <vsurf_IW8>
0

>  <vsurf_R>
1.43245

>  <vsurf_S>
592.342

>  <vsurf_V>
848.5

>  <vsurf_W1>
1473.5

>  <vsurf_W2>
881.125

>  <vsurf_W3>
436

>  <vsurf_W4>
144.375

>  <vsurf_W5>
45.75

>  <vsurf_W6>
10.5

>  <vsurf_W7>
1.25

>  <vsurf_W8>
0

>  <vsurf_Wp1>
1148.75

>  <vsurf_Wp2>
462.125

>  <vsurf_Wp3>
85

>  <vsurf_Wp4>
16.625

>  <vsurf_Wp5>
6

>  <vsurf_Wp6>
1.875

>  <vsurf_Wp7>
0

>  <vsurf_Wp8>
0

>  <dens>
1.2791

>  <glob>
0.0508488

>  <std_dim1>
4.61735

>  <std_dim2>
1.35858

>  <std_dim3>
1.0412

>  <vol>
363

>  <logP(o/w)>
2.774

$$$$
D9.cdx
  MOE2008           3D

 43 46  0  0  0  0  0  0  0  0999 V2000
   -7.2340   -0.3090    0.1130 C   0  0  0  0  0  0  0  0  0  0  0  0
   -7.8480    0.4980    0.5040 H   0  0  0  0  0  0  0  0  0  0  0  0
   -7.7830   -1.2600   -0.7400 C   0  0  0  0  0  0  0  0  0  0  0  0
   -8.8330   -1.1940   -1.0150 H   0  0  0  0  0  0  0  0  0  0  0  0
   -7.0030   -2.3020   -1.2480 C   0  0  0  0  0  0  0  0  0  0  0  0
   -7.4360   -3.0430   -1.9120 H   0  0  0  0  0  0  0  0  0  0  0  0
   -5.6550   -2.3550   -0.8700 C   0  0  0  0  0  0  0  0  0  0  0  0
   -5.0660   -1.4180   -0.0140 C   0  0  0  0  0  0  0  0  0  0  0  0
   -5.8870   -0.3800    0.4780 C   0  0  0  0  0  0  0  0  0  0  0  0
   -4.6810   -3.2590   -1.2180 N   0  0  0  0  0  0  0  0  0  0  0  0
   -4.8240   -4.0520   -1.8300 H   0  0  0  0  0  0  0  0  0  0  0  0
   -3.4960   -2.9300   -0.6190 C   0  0  0  0  0  0  0  0  0  0  0  0
   -2.6200   -3.5450   -0.7830 H   0  0  0  0  0  0  0  0  0  0  0  0
   -3.6880   -1.7920    0.1460 C   0  0  0  0  0  0  0  0  0  0  0  0
   -2.6530   -1.1400    0.9420 C   0  0  0  0  0  0  0  0  0  0  0  0
   -1.2420   -1.7000    0.9480 C   0  0  0  0  0  0  0  0  0  0  0  0
   -0.2850   -1.0230    0.1990 N   0  0  0  0  0  0  0  0  0  0  0  0
    1.0940   -1.5070    0.1750 C   0  0  0  0  0  0  0  0  0  0  0  0
    1.2210   -2.3750    0.8290 H   0  0  0  0  0  0  0  0  0  0  0  0
    1.2980   -1.8340   -0.8520 H   0  0  0  0  0  0  0  0  0  0  0  0
    2.0810   -0.4010    0.5780 C   0  0  0  0  0  0  0  0  0  0  0  0
    3.0940   -0.7750    0.4180 H   0  0  0  0  0  0  0  0  0  0  0  0
    1.9620   -0.1570    1.6400 H   0  0  0  0  0  0  0  0  0  0  0  0
    1.8370    0.8420   -0.1760 N   0  0  0  0  0  0  0  0  0  0  0  0
    0.4410    1.3020   -0.1790 C   0  0  0  0  0  0  0  0  0  0  0  0
    0.2170    1.6200    0.8470 H   0  0  0  0  0  0  0  0  0  0  0  0
    0.3090    2.1730   -0.8270 H   0  0  0  0  0  0  0  0  0  0  0  0
   -0.5230    0.1870   -0.5990 C   0  0  0  0  0  0  0  0  0  0  0  0
   -0.3480   -0.0860   -1.6470 H   0  0  0  0  0  0  0  0  0  0  0  0
   -1.5540    0.5330   -0.5180 H   0  0  0  0  0  0  0  0  0  0  0  0
    2.7970    1.5830   -0.8690 C   0  0  0  0  0  0  0  0  0  0  0  0
    4.2090    1.3080   -0.6040 C   0  0  0  0  0  0  0  0  0  0  0  0
   -2.8400   -0.1350    1.6200 O   0  0  0  0  0  0  0  0  0  0  0  0
   -1.0380   -2.7120    1.6090 O   0  0  0  0  0  0  0  0  0  0  0  0
    2.4880    2.4520   -1.6840 O   0  0  0  0  0  0  0  0  0  0  0  0
    5.1480    1.2520   -1.6190 C   0  0  0  0  0  0  0  0  0  0  0  0
    4.9740    1.3710   -2.6800 H   0  0  0  0  0  0  0  0  0  0  0  0
    6.7300    0.9400   -1.0490 S   0  0  0  0  0  0  0  0  0  0  0  0
    6.2000    0.9320    0.5750 C   0  0  0  0  0  0  0  0  0  0  0  0
    6.9070    0.7760    1.3780 H   0  0  0  0  0  0  0  0  0  0  0  0
    4.8450    1.1550    0.6760 C   0  0  0  0  0  0  0  0  0  0  0  0
    4.3290    1.2110    1.6270 H   0  0  0  0  0  0  0  0  0  0  0  0
   -5.4120    0.5660    1.3010 F   0  0  0  0  0  0  0  0  0  0  0  0
  1  2  1  0  0  0  0
  1  3  1  0  0  0  0
  1  9  2  0  0  0  0
  3  4  1  0  0  0  0
  3  5  2  0  0  0  0
  5  6  1  0  0  0  0
  5  7  1  0  0  0  0
  7  8  2  0  0  0  0
  7 10  1  0  0  0  0
  8  9  1  0  0  0  0
  8 14  1  0  0  0  0
  9 43  1  0  0  0  0
 10 11  1  0  0  0  0
 10 12  1  0  0  0  0
 12 13  1  0  0  0  0
 12 14  2  0  0  0  0
 14 15  1  0  0  0  0
 15 16  1  0  0  0  0
 15 33  2  0  0  0  0
 16 17  1  0  0  0  0
 16 34  2  0  0  0  0
 17 18  1  0  0  0  0
 17 28  1  0  0  0  0
 18 19  1  0  0  0  0
 18 20  1  0  0  0  0
 18 21  1  0  0  0  0
 21 22  1  0  0  0  0
 21 23  1  0  0  0  0
 21 24  1  0  0  0  0
 24 25  1  0  0  0  0
 24 31  1  0  0  0  0
 25 26  1  0  0  0  0
 25 27  1  0  0  0  0
 25 28  1  0  0  0  0
 28 29  1  0  0  0  0
 28 30  1  0  0  0  0
 31 32  1  0  0  0  0
 31 35  2  0  0  0  0
 32 36  2  0  0  0  0
 32 41  1  0  0  0  0
 36 37  1  0  0  0  0
 36 38  1  0  0  0  0
 38 39  1  0  0  0  0
 39 40  1  0  0  0  0
 39 41  2  0  0  0  0
 41 42  1  0  0  0  0
M  END
>  <Activity>
9.3979

>  <AM1_dipole>
6.25078

>  <AM1_E>
-113274

>  <AM1_Eele>
-801126

>  <AM1_HF>
-35.7829

>  <AM1_HOMO>
-8.81453

>  <AM1_IP>
8.81453

>  <AM1_LUMO>
-0.54404

>  <diameter>
14

>  <petitjean>
0.5

>  <petitjeanSC>
1

>  <radius>
7

>  <VDistEq>
3.60077

>  <VDistMa>
9.1899

>  <weinerPath>
1979

>  <weinerPol>
44

>  <BCUT_PEOE_0>
-2.71165

>  <BCUT_PEOE_1>
-0.639566

>  <BCUT_PEOE_2>
0.645415

>  <BCUT_PEOE_3>
2.65015

>  <BCUT_SLOGP_0>
-2.85986

>  <BCUT_SLOGP_1>
-0.587111

>  <BCUT_SLOGP_2>
0.775304

>  <BCUT_SLOGP_3>
2.50417

>  <BCUT_SMR_0>
-2.43177

>  <BCUT_SMR_1>
-0.433228

>  <BCUT_SMR_2>
0.825854

>  <BCUT_SMR_3>
2.92052

>  <GCUT_PEOE_0>
-0.859949

>  <GCUT_PEOE_1>
-0.446259

>  <GCUT_PEOE_2>
0.0872691

>  <GCUT_PEOE_3>
2.62741

>  <GCUT_SLOGP_0>
-0.976486

>  <GCUT_SLOGP_1>
-0.336602

>  <GCUT_SLOGP_2>
0.242222

>  <GCUT_SLOGP_3>
2.60638

>  <GCUT_SMR_0>
-0.508856

>  <GCUT_SMR_1>
-0.228087

>  <GCUT_SMR_2>
0.241817

>  <GCUT_SMR_3>
2.89972

>  <a_aro>
14

>  <a_count>
43

>  <a_IC>
79.109

>  <a_ICM>
1.83974

>  <a_nH>
16

>  <b_1rotN>
5

>  <b_1rotR>
0.166667

>  <b_ar>
15

>  <b_count>
46

>  <b_double>
3

>  <b_rotN>
5

>  <b_rotR>
0.166667

>  <b_single>
28

>  <b_triple>
0

>  <chi0v>
15.0918

>  <chi0v_C>
10.8699

>  <chi1v>
9.40974

>  <chi1v_C>
4.94338

>  <chiral>
0

>  <chiral_u>
0

>  <nmol>
1

>  <reactive>
0

>  <rings>
4

>  <Weight>
385.419

>  <a_heavy>
27

>  <a_nB>
0

>  <a_nBr>
0

>  <a_nC>
19

>  <a_nCl>
0

>  <a_nF>
1

>  <a_nI>
0

>  <a_nN>
3

>  <a_nO>
3

>  <a_nP>
0

>  <a_nS>
1

>  <b_heavy>
30

>  <chi0>
18.9659

>  <chi0_C>
12.397

>  <chi1>
13.0586

>  <chi1_C>
6.54124

>  <FCharge>
0

>  <VAdjEq>
0.410248

>  <VAdjMa>
5.90689

>  <zagreb>
146

>  <balabanJ>
1.30375

>  <PEOE_PC+>
2.43942

>  <PEOE_PC->
-2.43942

>  <PEOE_RPC+>
0.120972

>  <PEOE_RPC->
0.147524

>  <PEOE_VSA+0>
89.1626

>  <PEOE_VSA+1>
57.6586

>  <PEOE_VSA+2>
9.02085

>  <PEOE_VSA+3>
28.3796

>  <PEOE_VSA+4>
0

>  <PEOE_VSA+5>
34.3576

>  <PEOE_VSA+6>
0

>  <PEOE_VSA-0>
24.5098

>  <PEOE_VSA-1>
24.5098

>  <PEOE_VSA-2>
28.4619

>  <PEOE_VSA-3>
0

>  <PEOE_VSA-4>
11.9086

>  <PEOE_VSA-5>
40.7008

>  <PEOE_VSA-6>
0.136891

>  <PEOE_VSA_FHYD>
0.750281

>  <PEOE_VSA_FNEG>
0.373352

>  <PEOE_VSA_FPNEG>
0.151219

>  <PEOE_VSA_FPOL>
0.249719

>  <PEOE_VSA_FPOS>
0.626648

>  <PEOE_VSA_FPPOS>
0.0985002

>  <PEOE_VSA_HYD>
261.703

>  <PEOE_VSA_NEG>
130.228

>  <PEOE_VSA_PNEG>
52.7463

>  <PEOE_VSA_POL>
87.1039

>  <PEOE_VSA_POS>
218.579

>  <PEOE_VSA_PPOS>
34.3576

>  <PC+>
4.745

>  <PC->
-4.746

>  <Q_PC+>
4.745

>  <Q_PC->
-4.746

>  <Q_RPC+>
0.150896

>  <Q_RPC->
0.139064

>  <Q_VSA_FHYD>
0.56081

>  <Q_VSA_FNEG>
0.509491

>  <Q_VSA_FPNEG>
0.164695

>  <Q_VSA_FPOL>
0.43919

>  <Q_VSA_FPOS>
0.490509

>  <Q_VSA_FPPOS>
0.274495

>  <Q_VSA_HYD>
195.615

>  <Q_VSA_NEG>
177.714

>  <Q_VSA_PNEG>
57.4467

>  <Q_VSA_POL>
153.193

>  <Q_VSA_POS>
171.093

>  <Q_VSA_PPOS>
95.7459

>  <RPC+>
0.150896

>  <RPC->
0.139064

>  <lip_acc>
6

>  <lip_don>
1

>  <lip_druglike>
1

>  <lip_violation>
0

>  <opr_brigid>
21

>  <opr_leadlike>
1

>  <opr_nring>
4

>  <opr_nrot>
5

>  <opr_violation>
0

>  <E>
77.7171

>  <E_ang>
10.6545

>  <E_ele>
28.4964

>  <E_nb>
61.6105

>  <E_oop>
0.0431713

>  <E_sol>
-17.4178

>  <E_stb>
-0.187577

>  <E_str>
5.23331

>  <E_strain>
0.00465894

>  <E_tor>
0.363134

>  <E_vdw>
33.1141

>  <E_rele>
0

>  <E_rnb>
0

>  <E_rsol>
0

>  <E_rvdw>
0

>  <Kier1>
20.28

>  <Kier2>
8.78853

>  <Kier3>
4.16

>  <KierA1>
14.979

>  <KierA2>
6.40987

>  <KierA3>
3.00569

>  <KierFlex>
3.55605

>  <logS>
-3.97832

>  <MNDO_dipole>
5.83706

>  <MNDO_E>
-114140

>  <MNDO_Eele>
-797059

>  <MNDO_HF>
-56.832

>  <MNDO_HOMO>
-8.9276

>  <MNDO_IP>
8.9276

>  <MNDO_LUMO>
-0.64844

>  <apol>
53.2717

>  <bpol>
28.4683

>  <mr>
10.2171

>  <dipole>
1.30165

>  <dipoleX>
-0.291065

>  <dipoleY>
-1.06069

>  <dipoleZ>
-0.69608

>  <pmi>
9019.19

>  <pmiX>
7701.47

>  <pmiY>
947.016

>  <pmiZ>
370.704

>  <rgyr>
4.83746

>  <a_acc>
3

>  <a_acid>
0

>  <a_base>
0

>  <a_don>
1

>  <a_hyd>
18

>  <vsa_acc>
40.7008

>  <vsa_acid>
0

>  <vsa_base>
0

>  <vsa_don>
5.68258

>  <vsa_hyd>
254.316

>  <vsa_other>
34.3576

>  <vsa_pol>
46.3833

>  <PM3_dipole>
5.39045

>  <PM3_E>
-103552

>  <PM3_Eele>
-786763

>  <PM3_HF>
-68.2384

>  <PM3_HOMO>
-8.89188

>  <PM3_IP>
8.89188

>  <PM3_LUMO>
-0.68108

>  <SlogP>
2.5358

>  <SlogP_VSA0>
0

>  <SlogP_VSA1>
22.4538

>  <SlogP_VSA2>
49.7688

>  <SlogP_VSA3>
73.7583

>  <SlogP_VSA4>
54.0956

>  <SlogP_VSA5>
0

>  <SlogP_VSA6>
0

>  <SlogP_VSA7>
124.136

>  <SlogP_VSA8>
0

>  <SlogP_VSA9>
46.2378

>  <SMR>
9.93897

>  <SMR_VSA0>
71.5866

>  <SMR_VSA1>
21.2087

>  <SMR_VSA2>
25.9065

>  <SMR_VSA3>
6.37115

>  <SMR_VSA4>
4.7171

>  <SMR_VSA5>
119.419

>  <SMR_VSA6>
89.9635

>  <SMR_VSA7>
31.2777

>  <ASA>
605.916

>  <ASA+>
212.693

>  <ASA->
285.385

>  <ASA_H>
453.685

>  <ASA_P>
152.231

>  <CASA+>
1009.23

>  <CASA->
1354.44

>  <DASA>
72.6919

>  <DCASA>
345.208

>  <FASA+>
0.351027

>  <FASA->
0.470997

>  <FASA_H>
0.748758

>  <FASA_P>
0.251242

>  <FCASA+>
1.66562

>  <FCASA->
2.23535

>  <VSA>
371.048

>  <TPSA>
73.48

>  <density>
0.823175

>  <vdw_area>
348.807

>  <vdw_vol>
468.21

>  <vsurf_A>
1.86074

>  <vsurf_CP>
0.11745

>  <vsurf_CW1>
2.70455

>  <vsurf_CW2>
2.32855

>  <vsurf_CW3>
1.46983

>  <vsurf_CW4>
0.632521

>  <vsurf_CW5>
0.248707

>  <vsurf_CW6>
0.0639467

>  <vsurf_CW7>
0.00640016

>  <vsurf_CW8>
0

>  <vsurf_D1>
851

>  <vsurf_D2>
495.5

>  <vsurf_D3>
361.25

>  <vsurf_D4>
294.75

>  <vsurf_D5>
247.25

>  <vsurf_D6>
198.75

>  <vsurf_D7>
129

>  <vsurf_D8>
68

>  <vsurf_DD12>
5.24404

>  <vsurf_DD13>
0.5

>  <vsurf_DD23>
5.40833

>  <vsurf_DW12>
0.707107

>  <vsurf_DW13>
0.5

>  <vsurf_DW23>
0.5

>  <vsurf_EDmin1>
-2.65453

>  <vsurf_EDmin2>
-2.60069

>  <vsurf_EDmin3>
-2.5677

>  <vsurf_EWmin1>
-5.51088

>  <vsurf_EWmin2>
-5.39073

>  <vsurf_EWmin3>
-5.37847

>  <vsurf_G>
1.33971

>  <vsurf_HB1>
314.75

>  <vsurf_HB2>
413.25

>  <vsurf_HB3>
338.75

>  <vsurf_HB4>
116.625

>  <vsurf_HB5>
35

>  <vsurf_HB6>
8.25

>  <vsurf_HB7>
1.375

>  <vsurf_HB8>
0

>  <vsurf_HL1>
0.115225

>  <vsurf_HL2>
0.0339271

>  <vsurf_ID1>
0.523802

>  <vsurf_ID2>
0.64304

>  <vsurf_ID3>
0.636796

>  <vsurf_ID4>
0.564502

>  <vsurf_ID5>
0.529223

>  <vsurf_ID6>
0.551529

>  <vsurf_ID7>
1.13101

>  <vsurf_ID8>
1.1606

>  <vsurf_IW1>
0.209332

>  <vsurf_IW2>
0.213342

>  <vsurf_IW3>
0.434253

>  <vsurf_IW4>
1.40839

>  <vsurf_IW5>
1.25259

>  <vsurf_IW6>
1.30847

>  <vsurf_IW7>
3.72031

>  <vsurf_IW8>
0

>  <vsurf_R>
1.42806

>  <vsurf_S>
554.599

>  <vsurf_V>
792

>  <vsurf_W1>
1374.5

>  <vsurf_W2>
851.25

>  <vsurf_W3>
416.25

>  <vsurf_W4>
133.5

>  <vsurf_W5>
41.625

>  <vsurf_W6>
10

>  <vsurf_W7>
1.375

>  <vsurf_W8>
0

>  <vsurf_Wp1>
1059.75

>  <vsurf_Wp2>
438

>  <vsurf_Wp3>
77.5

>  <vsurf_Wp4>
16.875

>  <vsurf_Wp5>
6.625

>  <vsurf_Wp6>
1.75

>  <vsurf_Wp7>
0

>  <vsurf_Wp8>
0

>  <dens>
1.13735

>  <glob>
0.0576468

>  <std_dim1>
4.50528

>  <std_dim2>
1.34986

>  <std_dim3>
1.08171

>  <vol>
338.875

>  <logP(o/w)>
1.884

$$$$
D9.cdx
  MOE2008           3D

 46 49  0  0  0  0  0  0  0  0999 V2000
   -7.5850   10.7370   -0.1960 C   0  0  0  0  0  0  0  0  0  0  0  0
   -8.2350   11.5910   -0.0320 H   0  0  0  0  0  0  0  0  0  0  0  0
   -8.0480    9.6260   -0.8940 C   0  0  0  0  0  0  0  0  0  0  0  0
   -9.0660    9.6160   -1.2750 H   0  0  0  0  0  0  0  0  0  0  0  0
   -7.2210    8.5210   -1.1100 C   0  0  0  0  0  0  0  0  0  0  0  0
   -7.5860    7.6550   -1.6540 H   0  0  0  0  0  0  0  0  0  0  0  0
   -5.9150    8.5710   -0.6040 C   0  0  0  0  0  0  0  0  0  0  0  0
   -5.4130    9.6690    0.1030 C   0  0  0  0  0  0  0  0  0  0  0  0
   -6.2790   10.7660    0.3010 C   0  0  0  0  0  0  0  0  0  0  0  0
   -4.9110    7.6350   -0.6730 N   0  0  0  0  0  0  0  0  0  0  0  0
   -4.9940    6.7350   -1.1260 H   0  0  0  0  0  0  0  0  0  0  0  0
   -3.7900    8.1000   -0.0410 C   0  0  0  0  0  0  0  0  0  0  0  0
   -2.9010    7.4830    0.0030 H   0  0  0  0  0  0  0  0  0  0  0  0
   -4.0570    9.3610    0.4640 C   0  0  0  0  0  0  0  0  0  0  0  0
   -3.1050   10.1760    1.2110 C   0  0  0  0  0  0  0  0  0  0  0  0
   -1.7040    9.6530    1.4680 C   0  0  0  0  0  0  0  0  0  0  0  0
   -0.6800   10.1590    0.6730 N   0  0  0  0  0  0  0  0  0  0  0  0
    0.6920    9.6920    0.8720 C   0  0  0  0  0  0  0  0  0  0  0  0
    0.7550    9.0010    1.7190 H   0  0  0  0  0  0  0  0  0  0  0  0
    0.9710    9.1360   -0.0310 H   0  0  0  0  0  0  0  0  0  0  0  0
    1.6580   10.8670    1.0830 C   0  0  0  0  0  0  0  0  0  0  0  0
    2.6760   10.4720    1.1040 H   0  0  0  0  0  0  0  0  0  0  0  0
    1.4570   11.3540    2.0440 H   0  0  0  0  0  0  0  0  0  0  0  0
    1.4900   11.8940    0.0410 N   0  0  0  0  0  0  0  0  0  0  0  0
    0.1060   12.3430   -0.1650 C   0  0  0  0  0  0  0  0  0  0  0  0
   -0.1850   12.8840    0.7440 H   0  0  0  0  0  0  0  0  0  0  0  0
    0.0310   13.0440   -1.0010 H   0  0  0  0  0  0  0  0  0  0  0  0
   -0.8410   11.1590   -0.3910 C   0  0  0  0  0  0  0  0  0  0  0  0
   -0.5980   10.6580   -1.3350 H   0  0  0  0  0  0  0  0  0  0  0  0
   -1.8710   11.5140   -0.4630 H   0  0  0  0  0  0  0  0  0  0  0  0
    2.5130   12.4440   -0.7440 C   0  0  0  0  0  0  0  0  0  0  0  0
    3.8860   12.1850   -0.3460 C   0  0  0  0  0  0  0  0  0  0  0  0
   -3.3580   11.2930    1.6550 O   0  0  0  0  0  0  0  0  0  0  0  0
   -1.5680    8.8150    2.3530 O   0  0  0  0  0  0  0  0  0  0  0  0
    2.2520   13.1350   -1.7300 O   0  0  0  0  0  0  0  0  0  0  0  0
    5.0000   11.6270   -1.5190 S   0  0  0  0  0  0  0  0  0  0  0  0
    6.2810   11.5810   -0.3850 C   0  0  0  0  0  0  0  0  0  0  0  0
    5.8730   12.0110    0.8600 C   0  0  0  0  0  0  0  0  0  0  0  0
    6.5320   12.0730    1.7170 H   0  0  0  0  0  0  0  0  0  0  0  0
    4.4940   12.3730    0.8800 C   0  0  0  0  0  0  0  0  0  0  0  0
    3.9770   12.7530    1.7530 H   0  0  0  0  0  0  0  0  0  0  0  0
    7.6330   11.1250   -0.8110 C   0  0  0  0  0  0  0  0  0  0  0  0
    8.0330   11.7740   -1.5970 H   0  0  0  0  0  0  0  0  0  0  0  0
    7.5960   10.0980   -1.1900 H   0  0  0  0  0  0  0  0  0  0  0  0
    8.3360   11.1450    0.0290 H   0  0  0  0  0  0  0  0  0  0  0  0
   -5.8880   11.8640    0.9630 F   0  0  0  0  0  0  0  0  0  0  0  0
  1  2  1  0  0  0  0
  1  3  1  0  0  0  0
  1  9  2  0  0  0  0
  3  4  1  0  0  0  0
  3  5  2  0  0  0  0
  5  6  1  0  0  0  0
  5  7  1  0  0  0  0
  7  8  2  0  0  0  0
  7 10  1  0  0  0  0
  8  9  1  0  0  0  0
  8 14  1  0  0  0  0
  9 46  1  0  0  0  0
 10 11  1  0  0  0  0
 10 12  1  0  0  0  0
 12 13  1  0  0  0  0
 12 14  2  0  0  0  0
 14 15  1  0  0  0  0
 15 16  1  0  0  0  0
 15 33  2  0  0  0  0
 16 17  1  0  0  0  0
 16 34  2  0  0  0  0
 17 18  1  0  0  0  0
 17 28  1  0  0  0  0
 18 19  1  0  0  0  0
 18 20  1  0  0  0  0
 18 21  1  0  0  0  0
 21 22  1  0  0  0  0
 21 23  1  0  0  0  0
 21 24  1  0  0  0  0
 24 25  1  0  0  0  0
 24 31  1  0  0  0  0
 25 26  1  0  0  0  0
 25 27  1  0  0  0  0
 25 28  1  0  0  0  0
 28 29  1  0  0  0  0
 28 30  1  0  0  0  0
 31 32  1  0  0  0  0
 31 35  2  0  0  0  0
 32 36  1  0  0  0  0
 32 40  2  0  0  0  0
 36 37  1  0  0  0  0
 37 38  2  0  0  0  0
 37 42  1  0  0  0  0
 38 39  1  0  0  0  0
 38 40  1  0  0  0  0
 40 41  1  0  0  0  0
 42 43  1  0  0  0  0
 42 44  1  0  0  0  0
 42 45  1  0  0  0  0
M  END
>  <Activity>
7.7619

>  <AM1_dipole>
6.36383

>  <AM1_E>
-116868

>  <AM1_Eele>
-844911

>  <AM1_HF>
-42.7238

>  <AM1_HOMO>
-8.82239

>  <AM1_IP>
8.82239

>  <AM1_LUMO>
-0.55627

>  <diameter>
15

>  <petitjean>
0.466667

>  <petitjeanSC>
0.875

>  <radius>
8

>  <VDistEq>
3.66293

>  <VDistMa>
9.29236

>  <weinerPath>
2209

>  <weinerPol>
46

>  <BCUT_PEOE_0>
-2.71183

>  <BCUT_PEOE_1>
-0.539764

>  <BCUT_PEOE_2>
0.644891

>  <BCUT_PEOE_3>
2.64947

>  <BCUT_SLOGP_0>
-2.85955

>  <BCUT_SLOGP_1>
-0.423408

>  <BCUT_SLOGP_2>
0.772912

>  <BCUT_SLOGP_3>
2.50697

>  <BCUT_SMR_0>
-2.43145

>  <BCUT_SMR_1>
-0.392304

>  <BCUT_SMR_2>
0.825451

>  <BCUT_SMR_3>
2.92078

>  <GCUT_PEOE_0>
-0.859949

>  <GCUT_PEOE_1>
-0.403982

>  <GCUT_PEOE_2>
0.0872664

>  <GCUT_PEOE_3>
2.64324

>  <GCUT_SLOGP_0>
-0.976482

>  <GCUT_SLOGP_1>
-0.33653

>  <GCUT_SLOGP_2>
0.225707

>  <GCUT_SLOGP_3>
2.63026

>  <GCUT_SMR_0>
-0.508846

>  <GCUT_SMR_1>
-0.182279

>  <GCUT_SMR_2>
0.241815

>  <GCUT_SMR_3>
2.9182

>  <a_aro>
14

>  <a_count>
46

>  <a_IC>
83.0769

>  <a_ICM>
1.80602

>  <a_nH>
18

>  <b_1rotN>
5

>  <b_1rotR>
0.16129

>  <b_ar>
15

>  <b_count>
49

>  <b_double>
3

>  <b_rotN>
5

>  <b_rotR>
0.16129

>  <b_single>
31

>  <b_triple>
0

>  <chi0v>
16.0144

>  <chi0v_C>
11.7925

>  <chi1v>
9.72027

>  <chi1v_C>
5.44338

>  <chiral>
0

>  <chiral_u>
0

>  <nmol>
1

>  <reactive>
0

>  <rings>
4

>  <Weight>
399.446

>  <a_heavy>
28

>  <a_nB>
0

>  <a_nBr>
0

>  <a_nC>
20

>  <a_nCl>
0

>  <a_nF>
1

>  <a_nI>
0

>  <a_nN>
3

>  <a_nO>
3

>  <a_nP>
0

>  <a_nS>
1

>  <b_heavy>
31

>  <chi0>
19.8361

>  <chi0_C>
13.2672

>  <chi1>
13.4524

>  <chi1_C>
7.11859

>  <FCharge>
0

>  <VAdjEq>
0.398935

>  <VAdjMa>
5.9542

>  <zagreb>
152

>  <balabanJ>
1.29471

>  <PEOE_PC+>
2.45776

>  <PEOE_PC->
-2.45776

>  <PEOE_RPC+>
0.120069

>  <PEOE_RPC->
0.146423

>  <PEOE_VSA+0>
91.2195

>  <PEOE_VSA+1>
61.9239

>  <PEOE_VSA+2>
9.02085

>  <PEOE_VSA+3>
28.3796

>  <PEOE_VSA+4>
12.9495

>  <PEOE_VSA+5>
21.4081

>  <PEOE_VSA+6>
0

>  <PEOE_VSA-0>
47.4421

>  <PEOE_VSA-1>
36.7647

>  <PEOE_VSA-2>
4.1846

>  <PEOE_VSA-3>
0

>  <PEOE_VSA-4>
11.9086

>  <PEOE_VSA-5>
40.7008

>  <PEOE_VSA-6>
0.136891

>  <PEOE_VSA_FHYD>
0.762037

>  <PEOE_VSA_FNEG>
0.385581

>  <PEOE_VSA_FPNEG>
0.1441

>  <PEOE_VSA_FPOL>
0.237963

>  <PEOE_VSA_FPOS>
0.614419

>  <PEOE_VSA_FPPOS>
0.0938631

>  <PEOE_VSA_HYD>
278.935

>  <PEOE_VSA_NEG>
141.138

>  <PEOE_VSA_PNEG>
52.7463

>  <PEOE_VSA_POL>
87.1039

>  <PEOE_VSA_POS>
224.901

>  <PEOE_VSA_PPOS>
34.3576

>  <PC+>
4.774

>  <PC->
-4.775

>  <Q_PC+>
4.774

>  <Q_PC->
-4.775

>  <Q_RPC+>
0.14977

>  <Q_RPC->
0.13822

>  <Q_VSA_FHYD>
0.581486

>  <Q_VSA_FNEG>
0.45806

>  <Q_VSA_FPNEG>
0.156941

>  <Q_VSA_FPOL>
0.418514

>  <Q_VSA_FPOS>
0.54194

>  <Q_VSA_FPPOS>
0.261573

>  <Q_VSA_HYD>
212.847

>  <Q_VSA_NEG>
167.668

>  <Q_VSA_PNEG>
57.4467

>  <Q_VSA_POL>
153.193

>  <Q_VSA_POS>
198.371

>  <Q_VSA_PPOS>
95.7459

>  <RPC+>
0.14977

>  <RPC->
0.13822

>  <lip_acc>
6

>  <lip_don>
1

>  <lip_druglike>
1

>  <lip_violation>
0

>  <opr_brigid>
21

>  <opr_leadlike>
1

>  <opr_nring>
4

>  <opr_nrot>
5

>  <opr_violation>
0

>  <E>
80.0967

>  <E_ang>
9.90885

>  <E_ele>
29.8771

>  <E_nb>
64.1851

>  <E_oop>
0.0281145

>  <E_sol>
-16.3998

>  <E_stb>
-0.375453

>  <E_str>
5.32835

>  <E_strain>
0.00386154

>  <E_tor>
1.02169

>  <E_vdw>
34.308

>  <E_rele>
0

>  <E_rnb>
1.13687e-013

>  <E_rsol>
1.13687e-013

>  <E_rvdw>
0

>  <Kier1>
21.2404

>  <Kier2>
9.01333

>  <Kier3>
4.39646

>  <KierA1>
15.8721

>  <KierA2>
6.65732

>  <KierA3>
3.22042

>  <KierFlex>
3.77378

>  <logS>
-4.44463

>  <MNDO_dipole>
5.77219

>  <MNDO_E>
-117753

>  <MNDO_Eele>
-837757

>  <MNDO_HF>
-66.9559

>  <MNDO_HOMO>
-8.91256

>  <MNDO_IP>
8.91256

>  <MNDO_LUMO>
-0.68191

>  <apol>
56.3653

>  <bpol>
30.6547

>  <mr>
10.6772

>  <dipole>
1.2871

>  <dipoleX>
0.168491

>  <dipoleY>
-1.22432

>  <dipoleZ>
-0.359555

>  <pmi>
9733.69

>  <pmiX>
8422.75

>  <pmiY>
862.228

>  <pmiZ>
448.718

>  <rgyr>
4.93639

>  <a_acc>
3

>  <a_acid>
0

>  <a_base>
0

>  <a_don>
1

>  <a_hyd>
19

>  <vsa_acc>
40.7008

>  <vsa_acid>
0

>  <vsa_base>
0

>  <vsa_don>
5.68258

>  <vsa_hyd>
270.124

>  <vsa_other>
34.3576

>  <vsa_pol>
46.3833

>  <PM3_dipole>
5.56832

>  <PM3_E>
-106999

>  <PM3_Eele>
-830495

>  <PM3_HF>
-72.4031

>  <PM3_HOMO>
-8.87299

>  <PM3_IP>
8.87299

>  <PM3_LUMO>
-0.74043

>  <SlogP>
2.84422

>  <SlogP_VSA0>
0

>  <SlogP_VSA1>
22.4538

>  <SlogP_VSA2>
49.7688

>  <SlogP_VSA3>
73.7583

>  <SlogP_VSA4>
53.6268

>  <SlogP_VSA5>
0

>  <SlogP_VSA6>
0

>  <SlogP_VSA7>
110.147

>  <SlogP_VSA8>
0

>  <SlogP_VSA9>
79.5638

>  <SMR>
10.4127

>  <SMR_VSA0>
71.5866

>  <SMR_VSA1>
21.2087

>  <SMR_VSA2>
25.9065

>  <SMR_VSA3>
5.90238

>  <SMR_VSA4>
4.7171

>  <SMR_VSA5>
105.43

>  <SMR_VSA6>
89.9635

>  <SMR_VSA7>
64.6037

>  <ASA>
645.189

>  <ASA+>
217.956

>  <ASA->
260.578

>  <ASA_H>
486.853

>  <ASA_P>
158.336

>  <CASA+>
1040.52

>  <CASA->
1244.26

>  <DASA>
42.6221

>  <DCASA>
203.739

>  <FASA+>
0.337817

>  <FASA->
0.403878

>  <FASA_H>
0.75459

>  <FASA_P>
0.24541

>  <FCASA+>
1.61274

>  <FCASA->
1.92852

>  <VSA>
393.627

>  <TPSA>
73.48

>  <density>
0.810828

>  <vdw_area>
366.039

>  <vdw_vol>
492.64

>  <vsurf_A>
1.98427

>  <vsurf_CP>
0.114482

>  <vsurf_CW1>
2.65927

>  <vsurf_CW2>
2.11927

>  <vsurf_CW3>
1.38093

>  <vsurf_CW4>
0.632827

>  <vsurf_CW5>
0.247941

>  <vsurf_CW6>
0.0653808

>  <vsurf_CW7>
0.00510548

>  <vsurf_CW8>
0

>  <vsurf_D1>
876.5

>  <vsurf_D2>
512.5

>  <vsurf_D3>
384.125

>  <vsurf_D4>
322.375

>  <vsurf_D5>
274.875

>  <vsurf_D6>
216

>  <vsurf_D7>
129.5

>  <vsurf_D8>
71.375

>  <vsurf_DD12>
5.38516

>  <vsurf_DD13>
0.866025

>  <vsurf_DD23>
6.06218

>  <vsurf_DW12>
0.707107

>  <vsurf_DW13>
5.72276

>  <vsurf_DW23>
6.18466

>  <vsurf_EDmin1>
-2.77581

>  <vsurf_EDmin2>
-2.66381

>  <vsurf_EDmin3>
-2.66199

>  <vsurf_EWmin1>
-5.50356

>  <vsurf_EWmin2>
-5.306

>  <vsurf_EWmin3>
-5.27995

>  <vsurf_G>
1.36239

>  <vsurf_HB1>
309.625

>  <vsurf_HB2>
398

>  <vsurf_HB3>
343.75

>  <vsurf_HB4>
124.25

>  <vsurf_HB5>
37.625

>  <vsurf_HB6>
8.75

>  <vsurf_HB7>
1.125

>  <vsurf_HB8>
0

>  <vsurf_HL1>
0.115197

>  <vsurf_HL2>
0.032183

>  <vsurf_ID1>
0.641721

>  <vsurf_ID2>
0.782193

>  <vsurf_ID3>
0.887406

>  <vsurf_ID4>
1.05472

>  <vsurf_ID5>
1.21191

>  <vsurf_ID6>
0.728441

>  <vsurf_ID7>
0.686106

>  <vsurf_ID8>
0.959926

>  <vsurf_IW1>
0.216187

>  <vsurf_IW2>
0.450991

>  <vsurf_IW3>
0.656393

>  <vsurf_IW4>
1.40613

>  <vsurf_IW5>
1.13938

>  <vsurf_IW6>
1.47258

>  <vsurf_IW7>
2.69615

>  <vsurf_IW8>
0

>  <vsurf_R>
1.42747

>  <vsurf_S>
582.764

>  <vsurf_V>
831.875

>  <vsurf_W1>
1394.13

>  <vsurf_W2>
837

>  <vsurf_W3>
423.875

>  <vsurf_W4>
141

>  <vsurf_W5>
44.25

>  <vsurf_W6>
10.375

>  <vsurf_W7>
1.125

>  <vsurf_W8>
0

>  <vsurf_Wp1>
1084.5

>  <vsurf_Wp2>
439

>  <vsurf_Wp3>
80.125

>  <vsurf_Wp4>
16.75

>  <vsurf_Wp5>
6.625

>  <vsurf_Wp6>
1.625

>  <vsurf_Wp7>
0

>  <vsurf_Wp8>
0

>  <dens>
1.12283

>  <glob>
0.0470212

>  <std_dim1>
4.96439

>  <std_dim2>
1.36703

>  <std_dim3>
1.0765

>  <vol>
355.75

>  <logP(o/w)>
1.941

$$$$
D9.cdx
  MOE2008           3D

 43 46  0  0  0  0  0  0  0  0999 V2000
   -7.5510    6.6550   -0.8250 C   0  0  0  0  0  0  0  0  0  0  0  0
   -8.2450    7.4900   -0.8080 H   0  0  0  0  0  0  0  0  0  0  0  0
   -7.9180    5.4490   -1.4120 C   0  0  0  0  0  0  0  0  0  0  0  0
   -8.9060    5.3430   -1.8540 H   0  0  0  0  0  0  0  0  0  0  0  0
   -7.0330    4.3680   -1.4390 C   0  0  0  0  0  0  0  0  0  0  0  0
   -7.3240    3.4260   -1.8960 H   0  0  0  0  0  0  0  0  0  0  0  0
   -5.7690    4.5410   -0.8590 C   0  0  0  0  0  0  0  0  0  0  0  0
   -5.3640    5.7380   -0.2580 C   0  0  0  0  0  0  0  0  0  0  0  0
   -6.2860    6.8070   -0.2520 C   0  0  0  0  0  0  0  0  0  0  0  0
   -4.7250    3.6540   -0.7490 N   0  0  0  0  0  0  0  0  0  0  0  0
   -4.7390    2.7040   -1.0950 H   0  0  0  0  0  0  0  0  0  0  0  0
   -3.6720    4.2440   -0.1060 C   0  0  0  0  0  0  0  0  0  0  0  0
   -2.7630    3.6820    0.0690 H   0  0  0  0  0  0  0  0  0  0  0  0
   -4.0250    5.5420    0.2240 C   0  0  0  0  0  0  0  0  0  0  0  0
   -3.1620    6.4850    0.9270 C   0  0  0  0  0  0  0  0  0  0  0  0
   -1.7600    6.0670    1.3300 C   0  0  0  0  0  0  0  0  0  0  0  0
   -0.7070    6.5280    0.5450 N   0  0  0  0  0  0  0  0  0  0  0  0
    0.6660    6.1510    0.8810 C   0  0  0  0  0  0  0  0  0  0  0  0
    0.7000    5.5590    1.8010 H   0  0  0  0  0  0  0  0  0  0  0  0
    1.0290    5.5170    0.0640 H   0  0  0  0  0  0  0  0  0  0  0  0
    1.5660    7.3880    1.0230 C   0  0  0  0  0  0  0  0  0  0  0  0
    2.5950    7.0480    1.1500 H   0  0  0  0  0  0  0  0  0  0  0  0
    1.2790    7.9640    1.9110 H   0  0  0  0  0  0  0  0  0  0  0  0
    1.4280    8.2900   -0.1340 N   0  0  0  0  0  0  0  0  0  0  0  0
    0.0440    8.6410   -0.4820 C   0  0  0  0  0  0  0  0  0  0  0  0
   -0.3340    9.2640    0.3370 H   0  0  0  0  0  0  0  0  0  0  0  0
    0.0000    9.2400   -1.3960 H   0  0  0  0  0  0  0  0  0  0  0  0
   -0.8350    7.3940   -0.6340 C   0  0  0  0  0  0  0  0  0  0  0  0
   -0.5050    6.8040   -1.4970 H   0  0  0  0  0  0  0  0  0  0  0  0
   -1.8710    7.6870   -0.8130 H   0  0  0  0  0  0  0  0  0  0  0  0
    2.4800    8.8120   -0.8990 C   0  0  0  0  0  0  0  0  0  0  0  0
    3.8310    8.6880   -0.3750 C   0  0  0  0  0  0  0  0  0  0  0  0
   -3.4920    7.6310    1.2180 O   0  0  0  0  0  0  0  0  0  0  0  0
   -1.6450    5.3460    2.3150 O   0  0  0  0  0  0  0  0  0  0  0  0
    2.2630    9.3710   -1.9750 O   0  0  0  0  0  0  0  0  0  0  0  0
    5.0770    8.1230   -1.4110 S   0  0  0  0  0  0  0  0  0  0  0  0
    6.2340    8.2820   -0.1870 C   0  0  0  0  0  0  0  0  0  0  0  0
    5.7260    8.7710    0.9880 C   0  0  0  0  0  0  0  0  0  0  0  0
    6.3170    8.9520    1.8770 H   0  0  0  0  0  0  0  0  0  0  0  0
    4.3260    9.0220    0.8750 C   0  0  0  0  0  0  0  0  0  0  0  0
    3.7140    9.4310    1.6710 H   0  0  0  0  0  0  0  0  0  0  0  0
    7.8690    7.8540   -0.4980 Cl  0  0  0  0  0  0  0  0  0  0  0  0
   -5.9870    7.9940    0.2960 F   0  0  0  0  0  0  0  0  0  0  0  0
  1  2  1  0  0  0  0
  1  3  1  0  0  0  0
  1  9  2  0  0  0  0
  3  4  1  0  0  0  0
  3  5  2  0  0  0  0
  5  6  1  0  0  0  0
  5  7  1  0  0  0  0
  7  8  2  0  0  0  0
  7 10  1  0  0  0  0
  8  9  1  0  0  0  0
  8 14  1  0  0  0  0
  9 43  1  0  0  0  0
 10 11  1  0  0  0  0
 10 12  1  0  0  0  0
 12 13  1  0  0  0  0
 12 14  2  0  0  0  0
 14 15  1  0  0  0  0
 15 16  1  0  0  0  0
 15 33  2  0  0  0  0
 16 17  1  0  0  0  0
 16 34  2  0  0  0  0
 17 18  1  0  0  0  0
 17 28  1  0  0  0  0
 18 19  1  0  0  0  0
 18 20  1  0  0  0  0
 18 21  1  0  0  0  0
 21 22  1  0  0  0  0
 21 23  1  0  0  0  0
 21 24  1  0  0  0  0
 24 25  1  0  0  0  0
 24 31  1  0  0  0  0
 25 26  1  0  0  0  0
 25 27  1  0  0  0  0
 25 28  1  0  0  0  0
 28 29  1  0  0  0  0
 28 30  1  0  0  0  0
 31 32  1  0  0  0  0
 31 35  2  0  0  0  0
 32 36  1  0  0  0  0
 32 40  2  0  0  0  0
 36 37  1  0  0  0  0
 37 38  2  0  0  0  0
 37 42  1  0  0  0  0
 38 39  1  0  0  0  0
 38 40  1  0  0  0  0
 40 41  1  0  0  0  0
M  END
>  <Activity>
7.9244

>  <AM1_dipole>
5.7553

>  <AM1_E>
-121576

>  <AM1_Eele>
-846479

>  <AM1_HF>
-16.1165

>  <AM1_HOMO>
-8.867

>  <AM1_IP>
8.867

>  <AM1_LUMO>
-0.7462

>  <diameter>
15

>  <petitjean>
0.466667

>  <petitjeanSC>
0.875

>  <radius>
8

>  <VDistEq>
3.66293

>  <VDistMa>
9.29236

>  <weinerPath>
2209

>  <weinerPol>
46

>  <BCUT_PEOE_0>
-2.7118

>  <BCUT_PEOE_1>
-0.612863

>  <BCUT_PEOE_2>
0.645226

>  <BCUT_PEOE_3>
2.64943

>  <BCUT_SLOGP_0>
-2.85955

>  <BCUT_SLOGP_1>
-0.423408

>  <BCUT_SLOGP_2>
0.775081

>  <BCUT_SLOGP_3>
2.50531

>  <BCUT_SMR_0>
-2.43144

>  <BCUT_SMR_1>
-0.39473

>  <BCUT_SMR_2>
0.825563

>  <BCUT_SMR_3>
2.92057

>  <GCUT_PEOE_0>
-0.859949

>  <GCUT_PEOE_1>
-0.417164

>  <GCUT_PEOE_2>
0.0872674

>  <GCUT_PEOE_3>
2.62413

>  <GCUT_SLOGP_0>
-0.976481

>  <GCUT_SLOGP_1>
-0.336511

>  <GCUT_SLOGP_2>
0.248134

>  <GCUT_SLOGP_3>
2.60958

>  <GCUT_SMR_0>
-0.508734

>  <GCUT_SMR_1>
-0.182277

>  <GCUT_SMR_2>
0.286049

>  <GCUT_SMR_3>
2.89952

>  <a_aro>
14

>  <a_count>
43

>  <a_IC>
84.5056

>  <a_ICM>
1.96525

>  <a_nH>
15

>  <b_1rotN>
5

>  <b_1rotR>
0.16129

>  <b_ar>
15

>  <b_count>
46

>  <b_double>
3

>  <b_rotN>
5

>  <b_rotR>
0.16129

>  <b_single>
28

>  <b_triple>
0

>  <chi0v>
16.1483

>  <chi0v_C>
10.7925

>  <chi1v>
9.78722

>  <chi1v_C>
4.94338

>  <chiral>
0

>  <chiral_u>
0

>  <nmol>
1

>  <reactive>
0

>  <rings>
4

>  <Weight>
419.864

>  <a_heavy>
28

>  <a_nB>
0

>  <a_nBr>
0

>  <a_nC>
19

>  <a_nCl>
1

>  <a_nF>
1

>  <a_nI>
0

>  <a_nN>
3

>  <a_nO>
3

>  <a_nP>
0

>  <a_nS>
1

>  <b_heavy>
31

>  <chi0>
19.8361

>  <chi0_C>
12.2672

>  <chi1>
13.4524

>  <chi1_C>
6.54124

>  <FCharge>
0

>  <VAdjEq>
0.398935

>  <VAdjMa>
5.9542

>  <zagreb>
152

>  <balabanJ>
1.29471

>  <PEOE_PC+>
2.39264

>  <PEOE_PC->
-2.39264

>  <PEOE_RPC+>
0.123337

>  <PEOE_RPC->
0.150408

>  <PEOE_VSA+0>
78.4233

>  <PEOE_VSA+1>
61.9239

>  <PEOE_VSA+2>
9.02085

>  <PEOE_VSA+3>
28.3796

>  <PEOE_VSA+4>
12.9495

>  <PEOE_VSA+5>
21.4081

>  <PEOE_VSA+6>
0

>  <PEOE_VSA-0>
35.1902

>  <PEOE_VSA-1>
66.3467

>  <PEOE_VSA-2>
0

>  <PEOE_VSA-3>
0

>  <PEOE_VSA-4>
11.9086

>  <PEOE_VSA-5>
40.7008

>  <PEOE_VSA-6>
0.136891

>  <PEOE_VSA_FHYD>
0.762264

>  <PEOE_VSA_FNEG>
0.421092

>  <PEOE_VSA_FPNEG>
0.143963

>  <PEOE_VSA_FPOL>
0.237736

>  <PEOE_VSA_FPOS>
0.578908

>  <PEOE_VSA_FPPOS>
0.0937736

>  <PEOE_VSA_HYD>
279.285

>  <PEOE_VSA_NEG>
154.283

>  <PEOE_VSA_PNEG>
52.7463

>  <PEOE_VSA_POL>
87.1039

>  <PEOE_VSA_POS>
212.105

>  <PEOE_VSA_PPOS>
34.3576

>  <PC+>
4.758

>  <PC->
-4.759

>  <Q_PC+>
4.758

>  <Q_PC->
-4.759

>  <Q_RPC+>
0.150273

>  <Q_RPC->
0.138685

>  <Q_VSA_FHYD>
0.581885

>  <Q_VSA_FNEG>
0.526941

>  <Q_VSA_FPNEG>
0.156792

>  <Q_VSA_FPOL>
0.418115

>  <Q_VSA_FPOS>
0.473059

>  <Q_VSA_FPPOS>
0.261323

>  <Q_VSA_HYD>
213.196

>  <Q_VSA_NEG>
193.065

>  <Q_VSA_PNEG>
57.4467

>  <Q_VSA_POL>
153.193

>  <Q_VSA_POS>
173.323

>  <Q_VSA_PPOS>
95.7459

>  <RPC+>
0.150273

>  <RPC->
0.138685

>  <lip_acc>
6

>  <lip_don>
1

>  <lip_druglike>
1

>  <lip_violation>
0

>  <opr_brigid>
21

>  <opr_leadlike>
1

>  <opr_nring>
4

>  <opr_nrot>
5

>  <opr_violation>
0

>  <E>
77.8255

>  <E_ang>
9.60325

>  <E_ele>
29.6956

>  <E_nb>
62.4549

>  <E_oop>
0.0311215

>  <E_sol>
-17.7195

>  <E_stb>
-0.575909

>  <E_str>
5.46861

>  <E_strain>
0.00400441

>  <E_tor>
0.843604

>  <E_vdw>
32.7592

>  <E_rele>
0

>  <E_rnb>
8.52651e-014

>  <E_rsol>
8.52651e-014

>  <E_rvdw>
0

>  <Kier1>
21.2404

>  <Kier2>
9.01333

>  <Kier3>
4.39646

>  <KierA1>
16.7638

>  <KierA2>
7.04733

>  <KierA3>
3.41463

>  <KierFlex>
4.21928

>  <logS>
-5.17679

>  <MNDO_dipole>
5.08796

>  <MNDO_E>
-121992

>  <MNDO_Eele>
-842316

>  <MNDO_HF>
-63.1765

>  <MNDO_HOMO>
-8.94001

>  <MNDO_IP>
8.94001

>  <MNDO_LUMO>
-0.91171

>  <apol>
54.7849

>  <bpol>
27.7951

>  <mr>
10.7221

>  <dipole>
1.15963

>  <dipoleX>
-0.221343

>  <dipoleY>
-1.13304

>  <dipoleZ>
-0.109357

>  <pmi>
11254.6

>  <pmiX>
9772.94

>  <pmiY>
1039.9

>  <pmiZ>
441.744

>  <rgyr>
5.17739

>  <a_acc>
3

>  <a_acid>
0

>  <a_base>
0

>  <a_don>
1

>  <a_hyd>
19

>  <vsa_acc>
40.7008

>  <vsa_acid>
0

>  <vsa_base>
0

>  <vsa_don>
5.68258

>  <vsa_hyd>
272.609

>  <vsa_other>
34.3576

>  <vsa_pol>
46.3833

>  <PM3_dipole>
5.27887

>  <PM3_E>
-110496

>  <PM3_Eele>
-833091

>  <PM3_HF>
-67.945

>  <PM3_HOMO>
-8.90884

>  <PM3_IP>
8.90884

>  <PM3_LUMO>
-0.93665

>  <SlogP>
3.1892

>  <SlogP_VSA0>
0

>  <SlogP_VSA1>
22.4538

>  <SlogP_VSA2>
49.7688

>  <SlogP_VSA3>
73.7583

>  <SlogP_VSA4>
52.2684

>  <SlogP_VSA5>
0

>  <SlogP_VSA6>
1.67343

>  <SlogP_VSA7>
110.147

>  <SlogP_VSA8>
0

>  <SlogP_VSA9>
85.3864

>  <SMR>
10.44

>  <SMR_VSA0>
71.5866

>  <SMR_VSA1>
21.2087

>  <SMR_VSA2>
25.9065

>  <SMR_VSA3>
6.21741

>  <SMR_VSA4>
4.7171

>  <SMR_VSA5>
105.43

>  <SMR_VSA6>
89.9635

>  <SMR_VSA7>
70.4263

>  <ASA>
635.5

>  <ASA+>
201.231

>  <ASA->
326.742

>  <ASA_H>
481.027

>  <ASA_P>
154.473

>  <CASA+>
957.459

>  <CASA->
1554.97

>  <DASA>
125.511

>  <DCASA>
597.508

>  <FASA+>
0.31665

>  <FASA->
0.51415

>  <FASA_H>
0.756927

>  <FASA_P>
0.243073

>  <FCASA+>
1.50662

>  <FCASA->
2.44684

>  <VSA>
387.534

>  <TPSA>
73.48

>  <density>
0.86719

>  <vdw_area>
366.388

>  <vdw_vol>
484.166

>  <vsurf_A>
2.28431

>  <vsurf_CP>
0.116323

>  <vsurf_CW1>
2.68439

>  <vsurf_CW2>
2.20825

>  <vsurf_CW3>
1.40822

>  <vsurf_CW4>
0.629845

>  <vsurf_CW5>
0.24333

>  <vsurf_CW6>
0.0641479

>  <vsurf_CW7>
0.00525672

>  <vsurf_CW8>
0

>  <vsurf_D1>
926

>  <vsurf_D2>
531.625

>  <vsurf_D3>
391.375

>  <vsurf_D4>
326.625

>  <vsurf_D5>
280

>  <vsurf_D6>
233.375

>  <vsurf_D7>
144

>  <vsurf_D8>
78.125

>  <vsurf_DD12>
5.40833

>  <vsurf_DD13>
0.707107

>  <vsurf_DD23>
6.06218

>  <vsurf_DW12>
0.5

>  <vsurf_DW13>
0.707107

>  <vsurf_DW23>
1.11803

>  <vsurf_EDmin1>
-2.76685

>  <vsurf_EDmin2>
-2.67236

>  <vsurf_EDmin3>
-2.63764

>  <vsurf_EWmin1>
-5.62175

>  <vsurf_EWmin2>
-5.53075

>  <vsurf_EWmin3>
-5.16778

>  <vsurf_G>
1.35834

>  <vsurf_HB1>
322.875

>  <vsurf_HB2>
401.125

>  <vsurf_HB3>
350

>  <vsurf_HB4>
125.125

>  <vsurf_HB5>
36.375

>  <vsurf_HB6>
8.5

>  <vsurf_HB7>
1.125

>  <vsurf_HB8>
0

>  <vsurf_HL1>
0.10955

>  <vsurf_HL2>
0.0309989

>  <vsurf_ID1>
0.658869

>  <vsurf_ID2>
0.700429

>  <vsurf_ID3>
0.738795

>  <vsurf_ID4>
0.746491

>  <vsurf_ID5>
0.877427

>  <vsurf_ID6>
1.12255

>  <vsurf_ID7>
1.02894

>  <vsurf_ID8>
1.10541

>  <vsurf_IW1>
0.269794

>  <vsurf_IW2>
0.571447

>  <vsurf_IW3>
0.966638

>  <vsurf_IW4>
1.72943

>  <vsurf_IW5>
1.58566

>  <vsurf_IW6>
1.47224

>  <vsurf_IW7>
3.16959

>  <vsurf_IW8>
0

>  <vsurf_R>
1.43352

>  <vsurf_S>
582.484

>  <vsurf_V>
835

>  <vsurf_W1>
1440.13

>  <vsurf_W2>
859.5

>  <vsurf_W3>
430.625

>  <vsurf_W4>
141.875

>  <vsurf_W5>
42.875

>  <vsurf_W6>
10.125

>  <vsurf_W7>
1.125

>  <vsurf_W8>
0

>  <vsurf_Wp1>
1117.25

>  <vsurf_Wp2>
458.375

>  <vsurf_Wp3>
80.625

>  <vsurf_Wp4>
16.75

>  <vsurf_Wp5>
6.5

>  <vsurf_Wp6>
1.625

>  <vsurf_Wp7>
0

>  <vsurf_Wp8>
0

>  <dens>
1.19577

>  <glob>
0.0510322

>  <std_dim1>
4.61009

>  <std_dim2>
1.35706

>  <std_dim3>
1.04143

>  <vol>
351.125

>  <logP(o/w)>
2.568

$$$$
D9.cdx
  MOE2008           3D

 42 45  0  0  0  0  0  0  0  0999 V2000
   -6.5980   -4.6550   -1.4880 C   0  0  0  0  0  0  0  0  0  0  0  0
   -7.3550   -3.8960   -1.6600 H   0  0  0  0  0  0  0  0  0  0  0  0
   -6.7430   -5.9270   -2.0310 C   0  0  0  0  0  0  0  0  0  0  0  0
   -7.6210   -6.1610   -2.6280 H   0  0  0  0  0  0  0  0  0  0  0  0
   -5.7750   -6.9110   -1.8180 C   0  0  0  0  0  0  0  0  0  0  0  0
   -5.8930   -7.9040   -2.2420 H   0  0  0  0  0  0  0  0  0  0  0  0
   -4.6570   -6.5740   -1.0430 C   0  0  0  0  0  0  0  0  0  0  0  0
   -4.4760   -5.3070   -0.4780 C   0  0  0  0  0  0  0  0  0  0  0  0
   -5.4750   -4.3390   -0.7180 C   0  0  0  0  0  0  0  0  0  0  0  0
   -3.5750   -7.3410   -0.6830 N   0  0  0  0  0  0  0  0  0  0  0  0
   -3.4450   -8.3090   -0.9460 H   0  0  0  0  0  0  0  0  0  0  0  0
   -2.7100   -6.6050    0.0790 C   0  0  0  0  0  0  0  0  0  0  0  0
   -1.8010   -7.0590    0.4550 H   0  0  0  0  0  0  0  0  0  0  0  0
   -3.2340   -5.3350    0.2460 C   0  0  0  0  0  0  0  0  0  0  0  0
   -2.6130   -4.2680    1.0260 C   0  0  0  0  0  0  0  0  0  0  0  0
   -1.2320   -4.4710    1.6250 C   0  0  0  0  0  0  0  0  0  0  0  0
   -0.1620   -3.8200    1.0110 N   0  0  0  0  0  0  0  0  0  0  0  0
    1.1830   -4.0210    1.5470 C   0  0  0  0  0  0  0  0  0  0  0  0
    1.3150   -3.2780    2.3430 H   0  0  0  0  0  0  0  0  0  0  0  0
    1.2590   -5.0120    2.0090 H   0  0  0  0  0  0  0  0  0  0  0  0
    2.2760   -3.8490    0.4870 C   0  0  0  0  0  0  0  0  0  0  0  0
    2.1850   -4.6380   -0.2700 H   0  0  0  0  0  0  0  0  0  0  0  0
    3.2550   -3.9360    0.9680 H   0  0  0  0  0  0  0  0  0  0  0  0
    2.1850   -2.5640   -0.2230 N   0  0  0  0  0  0  0  0  0  0  0  0
    0.8670   -1.9200   -0.2370 C   0  0  0  0  0  0  0  0  0  0  0  0
    0.8410   -1.2420    0.6250 H   0  0  0  0  0  0  0  0  0  0  0  0
    0.7570   -1.3100   -1.1400 H   0  0  0  0  0  0  0  0  0  0  0  0
   -0.2870   -2.9260   -0.1470 C   0  0  0  0  0  0  0  0  0  0  0  0
   -0.2970   -3.5680   -1.0360 H   0  0  0  0  0  0  0  0  0  0  0  0
   -1.2390   -2.3900   -0.1150 H   0  0  0  0  0  0  0  0  0  0  0  0
    3.2530   -1.9040   -0.8540 C   0  0  0  0  0  0  0  0  0  0  0  0
    4.5120   -2.5940   -1.0450 C   0  0  0  0  0  0  0  0  0  0  0  0
   -3.1530   -3.1890    1.2520 O   0  0  0  0  0  0  0  0  0  0  0  0
   -1.1400   -5.2040    2.6050 O   0  0  0  0  0  0  0  0  0  0  0  0
    3.1220   -0.7400   -1.2390 O   0  0  0  0  0  0  0  0  0  0  0  0
    4.5700   -3.9570   -1.0690 O   0  0  0  0  0  0  0  0  0  0  0  0
    5.8730   -4.3690   -1.2950 N   0  0  0  0  0  0  0  0  0  0  0  0
    6.5760   -3.2450   -1.4410 C   0  0  0  0  0  0  0  0  0  0  0  0
    7.6360   -3.3120   -1.6430 H   0  0  0  0  0  0  0  0  0  0  0  0
    5.7730   -2.1010   -1.3050 C   0  0  0  0  0  0  0  0  0  0  0  0
    6.0580   -1.0620   -1.3840 H   0  0  0  0  0  0  0  0  0  0  0  0
   -5.3840   -3.0940   -0.2290 F   0  0  0  0  0  0  0  0  0  0  0  0
  1  2  1  0  0  0  0
  1  3  1  0  0  0  0
  1  9  2  0  0  0  0
  3  4  1  0  0  0  0
  3  5  2  0  0  0  0
  5  6  1  0  0  0  0
  5  7  1  0  0  0  0
  7  8  2  0  0  0  0
  7 10  1  0  0  0  0
  8  9  1  0  0  0  0
  8 14  1  0  0  0  0
  9 42  1  0  0  0  0
 10 11  1  0  0  0  0
 10 12  1  0  0  0  0
 12 13  1  0  0  0  0
 12 14  2  0  0  0  0
 14 15  1  0  0  0  0
 15 16  1  0  0  0  0
 15 33  2  0  0  0  0
 16 17  1  0  0  0  0
 16 34  2  0  0  0  0
 17 18  1  0  0  0  0
 17 28  1  0  0  0  0
 18 19  1  0  0  0  0
 18 20  1  0  0  0  0
 18 21  1  0  0  0  0
 21 22  1  0  0  0  0
 21 23  1  0  0  0  0
 21 24  1  0  0  0  0
 24 25  1  0  0  0  0
 24 31  1  0  0  0  0
 25 26  1  0  0  0  0
 25 27  1  0  0  0  0
 25 28  1  0  0  0  0
 28 29  1  0  0  0  0
 28 30  1  0  0  0  0
 31 32  1  0  0  0  0
 31 35  2  0  0  0  0
 32 36  1  0  0  0  0
 32 40  2  0  0  0  0
 36 37  1  0  0  0  0
 37 38  2  0  0  0  0
 38 39  1  0  0  0  0
 38 40  1  0  0  0  0
 40 41  1  0  0  0  0
M  END
>  <Activity>
6.8074

>  <AM1_dipole>
4.61046

>  <AM1_E>
-117624

>  <AM1_Eele>
-811683

>  <AM1_HF>
-15.4958

>  <AM1_HOMO>
-8.83829

>  <AM1_IP>
8.83829

>  <AM1_LUMO>
-0.69226

>  <diameter>
14

>  <petitjean>
0.5

>  <petitjeanSC>
1

>  <radius>
7

>  <VDistEq>
3.60077

>  <VDistMa>
9.1899

>  <weinerPath>
1979

>  <weinerPol>
44

>  <BCUT_PEOE_0>
-2.70908

>  <BCUT_PEOE_1>
-0.591381

>  <BCUT_PEOE_2>
0.62716

>  <BCUT_PEOE_3>
2.65297

>  <BCUT_SLOGP_0>
-2.85972

>  <BCUT_SLOGP_1>
-0.490524

>  <BCUT_SLOGP_2>
0.741229

>  <BCUT_SLOGP_3>
2.50135

>  <BCUT_SMR_0>
-2.43168

>  <BCUT_SMR_1>
-0.413775

>  <BCUT_SMR_2>
0.84295

>  <BCUT_SMR_3>
2.9193

>  <GCUT_PEOE_0>
-0.859948

>  <GCUT_PEOE_1>
-0.425255

>  <GCUT_PEOE_2>
0.0763991

>  <GCUT_PEOE_3>
2.61892

>  <GCUT_SLOGP_0>
-0.976486

>  <GCUT_SLOGP_1>
-0.342345

>  <GCUT_SLOGP_2>
0.211993

>  <GCUT_SLOGP_3>
2.58206

>  <GCUT_SMR_0>
-0.508914

>  <GCUT_SMR_1>
-0.216774

>  <GCUT_SMR_2>
0.258175

>  <GCUT_SMR_3>
2.87983

>  <a_aro>
14

>  <a_count>
42

>  <a_IC>
76.8153

>  <a_ICM>
1.82894

>  <a_nH>
15

>  <b_1rotN>
5

>  <b_1rotR>
0.166667

>  <b_ar>
15

>  <b_count>
45

>  <b_double>
3

>  <b_rotN>
5

>  <b_rotR>
0.166667

>  <b_single>
27

>  <b_triple>
0

>  <chi0v>
14.1451

>  <chi0v_C>
10.2925

>  <chi1v>
8.35175

>  <chi1v_C>
4.6547

>  <chiral>
0

>  <chiral_u>
0

>  <nmol>
1

>  <reactive>
0

>  <rings>
4

>  <Weight>
370.34

>  <a_heavy>
27

>  <a_nB>
0

>  <a_nBr>
0

>  <a_nC>
18

>  <a_nCl>
0

>  <a_nF>
1

>  <a_nI>
0

>  <a_nN>
4

>  <a_nO>
4

>  <a_nP>
0

>  <a_nS>
0

>  <b_heavy>
30

>  <chi0>
18.9659

>  <chi0_C>
11.6899

>  <chi1>
13.0586

>  <chi1_C>
6.13299

>  <FCharge>
0

>  <VAdjEq>
0.410248

>  <VAdjMa>
5.90689

>  <zagreb>
146

>  <balabanJ>
1.30373

>  <PEOE_PC+>
2.59449

>  <PEOE_PC->
-2.59449

>  <PEOE_RPC+>
0.113741

>  <PEOE_RPC->
0.138707

>  <PEOE_VSA+0>
90.6782

>  <PEOE_VSA+1>
78.6699

>  <PEOE_VSA+2>
9.02085

>  <PEOE_VSA+3>
8.61901

>  <PEOE_VSA+4>
8.45852

>  <PEOE_VSA+5>
34.3576

>  <PEOE_VSA+6>
0

>  <PEOE_VSA-0>
24.5098

>  <PEOE_VSA-1>
23.1402

>  <PEOE_VSA-2>
0

>  <PEOE_VSA-3>
0

>  <PEOE_VSA-4>
11.9086

>  <PEOE_VSA-5>
40.7008

>  <PEOE_VSA-6>
6.03925

>  <PEOE_VSA_FHYD>
0.698114

>  <PEOE_VSA_FNEG>
0.316268

>  <PEOE_VSA_FPNEG>
0.174496

>  <PEOE_VSA_FPOL>
0.301886

>  <PEOE_VSA_FPOS>
0.683732

>  <PEOE_VSA_FPPOS>
0.12739

>  <PEOE_VSA_HYD>
234.638

>  <PEOE_VSA_NEG>
106.299

>  <PEOE_VSA_PNEG>
58.6486

>  <PEOE_VSA_POL>
101.465

>  <PEOE_VSA_POS>
229.804

>  <PEOE_VSA_PPOS>
42.8161

>  <PC+>
4.788

>  <PC->
-4.789

>  <Q_PC+>
4.788

>  <Q_PC->
-4.789

>  <Q_RPC+>
0.149332

>  <Q_RPC->
0.137816

>  <Q_VSA_FHYD>
0.511822

>  <Q_VSA_FNEG>
0.428651

>  <Q_VSA_FPNEG>
0.203307

>  <Q_VSA_FPOL>
0.488178

>  <Q_VSA_FPOS>
0.571349

>  <Q_VSA_FPPOS>
0.284871

>  <Q_VSA_HYD>
172.025

>  <Q_VSA_NEG>
144.071

>  <Q_VSA_PNEG>
68.3319

>  <Q_VSA_POL>
164.078

>  <Q_VSA_POS>
192.032

>  <Q_VSA_PPOS>
95.7459

>  <RPC+>
0.149332

>  <RPC->
0.137816

>  <lip_acc>
8

>  <lip_don>
1

>  <lip_druglike>
1

>  <lip_violation>
0

>  <opr_brigid>
21

>  <opr_leadlike>
1

>  <opr_nring>
4

>  <opr_nrot>
5

>  <opr_violation>
0

>  <E>
73.5797

>  <E_ang>
9.03987

>  <E_ele>
27.5753

>  <E_nb>
60.6958

>  <E_oop>
0.0709032

>  <E_sol>
-15.2746

>  <E_stb>
-0.0365094

>  <E_str>
5.21266

>  <E_strain>
0.00385259

>  <E_tor>
-1.40297

>  <E_vdw>
33.1204

>  <E_rele>
0

>  <E_rnb>
-1.42109e-014

>  <E_rsol>
-1.42109e-014

>  <E_rvdw>
0

>  <Kier1>
20.28

>  <Kier2>
8.78853

>  <Kier3>
4.16

>  <KierA1>
13.9822

>  <KierA2>
5.96504

>  <KierA3>
2.79069

>  <KierFlex>
3.08904

>  <logS>
-3.12384

>  <MNDO_dipole>
5.27634

>  <MNDO_E>
-117764

>  <MNDO_Eele>
-808455

>  <MNDO_HF>
-35.9577

>  <MNDO_HOMO>
-8.96223

>  <MNDO_IP>
8.96223

>  <MNDO_LUMO>
-0.71191

>  <apol>
49.8469

>  <bpol>
27.0111

>  <mr>
9.46956

>  <dipole>
1.22101

>  <dipoleX>
0.440498

>  <dipoleY>
-0.844241

>  <dipoleZ>
-0.764258

>  <pmi>
7669.74

>  <pmiX>
6120.19

>  <pmiY>
1034.19

>  <pmiZ>
515.365

>  <rgyr>
4.55082

>  <a_acc>
4

>  <a_acid>
0

>  <a_base>
0

>  <a_don>
1

>  <a_hyd>
15

>  <vsa_acc>
51.586

>  <vsa_acid>
0

>  <vsa_base>
0

>  <vsa_don>
5.68258

>  <vsa_hyd>
217.077

>  <vsa_other>
48.7185

>  <vsa_pol>
57.2686

>  <PM3_dipole>
4.83447

>  <PM3_E>
-106634

>  <PM3_Eele>
-791807

>  <PM3_HF>
-56.8654

>  <PM3_HOMO>
-8.93695

>  <PM3_IP>
8.93695

>  <PM3_LUMO>
-0.77324

>  <SlogP>
1.4623

>  <SlogP_VSA0>
0

>  <SlogP_VSA1>
42.0504

>  <SlogP_VSA2>
49.7688

>  <SlogP_VSA3>
73.7583

>  <SlogP_VSA4>
56.3588

>  <SlogP_VSA5>
9.73412

>  <SlogP_VSA6>
0

>  <SlogP_VSA7>
109.719

>  <SlogP_VSA8>
0

>  <SlogP_VSA9>
14.9601

>  <SMR>
9.15737

>  <SMR_VSA0>
81.3208

>  <SMR_VSA1>
40.8053

>  <SMR_VSA2>
25.9065

>  <SMR_VSA3>
8.6344

>  <SMR_VSA4>
4.7171

>  <SMR_VSA5>
105.001

>  <SMR_VSA6>
89.9635

>  <SMR_VSA7>
0

>  <ASA>
593.11

>  <ASA+>
238.549

>  <ASA->
238.935

>  <ASA_H>
405.808

>  <ASA_P>
187.302

>  <CASA+>
1142.17

>  <CASA->
1144.26

>  <DASA>
0.385622

>  <DCASA>
2.08529

>  <FASA+>
0.402201

>  <FASA->
0.402851

>  <FASA_H>
0.684203

>  <FASA_P>
0.315797

>  <FCASA+>
1.92574

>  <FCASA->
1.92925

>  <VSA>
355.39

>  <TPSA>
99.51

>  <density>
0.829832

>  <vdw_area>
336.103

>  <vdw_vol>
446.283

>  <vsurf_A>
2.2737

>  <vsurf_CP>
0.0883554

>  <vsurf_CW1>
2.77722

>  <vsurf_CW2>
2.38089

>  <vsurf_CW3>
1.67932

>  <vsurf_CW4>
0.805554

>  <vsurf_CW5>
0.323118

>  <vsurf_CW6>
0.0883285

>  <vsurf_CW7>
0.00519684

>  <vsurf_CW8>
0

>  <vsurf_D1>
761.5

>  <vsurf_D2>
441.75

>  <vsurf_D3>
325.875

>  <vsurf_D4>
263

>  <vsurf_D5>
217.75

>  <vsurf_D6>
174.5

>  <vsurf_D7>
107

>  <vsurf_D8>
65.25

>  <vsurf_DD12>
2.69258

>  <vsurf_DD13>
0.5

>  <vsurf_DD23>
2.34521

>  <vsurf_DW12>
5.89491

>  <vsurf_DW13>
5.78792

>  <vsurf_DW23>
0.5

>  <vsurf_EDmin1>
-2.67008

>  <vsurf_EDmin2>
-2.59159

>  <vsurf_EDmin3>
-2.59029

>  <vsurf_EWmin1>
-5.33722

>  <vsurf_EWmin2>
-5.32165

>  <vsurf_EWmin3>
-5.25245

>  <vsurf_G>
1.33301

>  <vsurf_HB1>
392.625

>  <vsurf_HB2>
493.375

>  <vsurf_HB3>
403.75

>  <vsurf_HB4>
151.875

>  <vsurf_HB5>
47.25

>  <vsurf_HB6>
11.375

>  <vsurf_HB7>
0.875

>  <vsurf_HB8>
0

>  <vsurf_HL1>
0.166475

>  <vsurf_HL2>
0.0484791

>  <vsurf_ID1>
0.912492

>  <vsurf_ID2>
0.976415

>  <vsurf_ID3>
1.07921

>  <vsurf_ID4>
1.21492

>  <vsurf_ID5>
1.33704

>  <vsurf_ID6>
1.48848

>  <vsurf_ID7>
1.20899

>  <vsurf_ID8>
1.21982

>  <vsurf_IW1>
0.584363

>  <vsurf_IW2>
0.701112

>  <vsurf_IW3>
0.815209

>  <vsurf_IW4>
1.04125

>  <vsurf_IW5>
1.50129

>  <vsurf_IW6>
2.12098

>  <vsurf_IW7>
3.87013

>  <vsurf_IW8>
0

>  <vsurf_R>
1.41394

>  <vsurf_S>
535.562

>  <vsurf_V>
757.25

>  <vsurf_W1>
1416.13

>  <vsurf_W2>
914.25

>  <vsurf_W3>
483.75

>  <vsurf_W4>
168.75

>  <vsurf_W5>
54.25

>  <vsurf_W6>
12.75

>  <vsurf_W7>
0.875

>  <vsurf_W8>
0

>  <vsurf_Wp1>
1023.5

>  <vsurf_Wp2>
420.875

>  <vsurf_Wp3>
80

>  <vsurf_Wp4>
16.875

>  <vsurf_Wp5>
7

>  <vsurf_Wp6>
1.375

>  <vsurf_Wp7>
0

>  <vsurf_Wp8>
0

>  <dens>
1.15416

>  <glob>
0.0837067

>  <std_dim1>
4.32611

>  <std_dim2>
1.45797

>  <std_dim3>
1.25163

>  <vol>
320.875

>  <logP(o/w)>
0.442

$$$$
D9.cdx
  MOE2008           3D

 43 46  0  0  0  0  0  0  0  0999 V2000
   -6.7480   -7.2560    0.0390 C   0  0  0  0  0  0  0  0  0  0  0  0
   -7.3660   -6.3910    0.2640 H   0  0  0  0  0  0  0  0  0  0  0  0
   -7.2910   -8.3550   -0.6180 C   0  0  0  0  0  0  0  0  0  0  0  0
   -8.3390   -8.3470   -0.9070 H   0  0  0  0  0  0  0  0  0  0  0  0
   -6.5050   -9.4730   -0.9110 C   0  0  0  0  0  0  0  0  0  0  0  0
   -6.9330  -10.3300   -1.4230 H   0  0  0  0  0  0  0  0  0  0  0  0
   -5.1590   -9.4490   -0.5230 C   0  0  0  0  0  0  0  0  0  0  0  0
   -4.5770   -8.3630    0.1410 C   0  0  0  0  0  0  0  0  0  0  0  0
   -5.4030   -7.2520    0.4190 C   0  0  0  0  0  0  0  0  0  0  0  0
   -4.1810  -10.4000   -0.6850 N   0  0  0  0  0  0  0  0  0  0  0  0
   -4.3190  -11.2960   -1.1330 H   0  0  0  0  0  0  0  0  0  0  0  0
   -3.0020   -9.9590   -0.1520 C   0  0  0  0  0  0  0  0  0  0  0  0
   -2.1240  -10.5920   -0.1890 H   0  0  0  0  0  0  0  0  0  0  0  0
   -3.1990   -8.6950    0.3770 C   0  0  0  0  0  0  0  0  0  0  0  0
   -2.1700   -7.8980    1.0360 C   0  0  0  0  0  0  0  0  0  0  0  0
   -0.7530   -8.4300    1.1420 C   0  0  0  0  0  0  0  0  0  0  0  0
    0.2060   -7.8550    0.3130 N   0  0  0  0  0  0  0  0  0  0  0  0
    1.5980   -8.2910    0.3960 C   0  0  0  0  0  0  0  0  0  0  0  0
    1.7310   -9.0420    1.1810 H   0  0  0  0  0  0  0  0  0  0  0  0
    1.8420   -8.7650   -0.5620 H   0  0  0  0  0  0  0  0  0  0  0  0
    2.5380   -7.1010    0.6460 C   0  0  0  0  0  0  0  0  0  0  0  0
    3.5680   -7.4560    0.5730 H   0  0  0  0  0  0  0  0  0  0  0  0
    2.3810   -6.7020    1.6550 H   0  0  0  0  0  0  0  0  0  0  0  0
    2.2790   -5.9920   -0.2930 N   0  0  0  0  0  0  0  0  0  0  0  0
    0.8670   -5.5940   -0.4060 C   0  0  0  0  0  0  0  0  0  0  0  0
    0.5980   -5.1310    0.5510 H   0  0  0  0  0  0  0  0  0  0  0  0
    0.7270   -4.8400   -1.1860 H   0  0  0  0  0  0  0  0  0  0  0  0
   -0.0430   -6.7970   -0.6750 C   0  0  0  0  0  0  0  0  0  0  0  0
    0.1800   -7.2240   -1.6600 H   0  0  0  0  0  0  0  0  0  0  0  0
   -1.0880   -6.4830   -0.6830 H   0  0  0  0  0  0  0  0  0  0  0  0
    3.2240   -5.3150   -1.0470 C   0  0  0  0  0  0  0  0  0  0  0  0
    4.6310   -5.5220   -0.7510 C   0  0  0  0  0  0  0  0  0  0  0  0
   -2.3670   -6.7850    1.5160 O   0  0  0  0  0  0  0  0  0  0  0  0
   -0.5450   -9.3270    1.9520 O   0  0  0  0  0  0  0  0  0  0  0  0
    2.9380   -4.5520   -1.9680 O   0  0  0  0  0  0  0  0  0  0  0  0
    5.6760   -5.6750   -1.7810 C   0  0  0  0  0  0  0  0  0  0  0  0
    5.7200   -4.8240   -2.4670 H   0  0  0  0  0  0  0  0  0  0  0  0
    5.5650   -6.6060   -2.3450 H   0  0  0  0  0  0  0  0  0  0  0  0
    6.9180   -5.7290   -0.9620 N   0  0  0  0  0  0  0  0  0  0  0  0
    6.6280   -5.5970    0.2620 N   0  0  0  0  0  0  0  0  0  0  0  0
    5.2760   -5.4490    0.4050 C   0  0  0  0  0  0  0  0  0  0  0  0
    4.8470   -5.2650    1.3790 H   0  0  0  0  0  0  0  0  0  0  0  0
   -4.9360   -6.1640    1.0470 F   0  0  0  0  0  0  0  0  0  0  0  0
  1  2  1  0  0  0  0
  1  3  1  0  0  0  0
  1  9  2  0  0  0  0
  3  4  1  0  0  0  0
  3  5  2  0  0  0  0
  5  6  1  0  0  0  0
  5  7  1  0  0  0  0
  7  8  2  0  0  0  0
  7 10  1  0  0  0  0
  8  9  1  0  0  0  0
  8 14  1  0  0  0  0
  9 43  1  0  0  0  0
 10 11  1  0  0  0  0
 10 12  1  0  0  0  0
 12 13  1  0  0  0  0
 12 14  2  0  0  0  0
 14 15  1  0  0  0  0
 15 16  1  0  0  0  0
 15 33  2  0  0  0  0
 16 17  1  0  0  0  0
 16 34  2  0  0  0  0
 17 18  1  0  0  0  0
 17 28  1  0  0  0  0
 18 19  1  0  0  0  0
 18 20  1  0  0  0  0
 18 21  1  0  0  0  0
 21 22  1  0  0  0  0
 21 23  1  0  0  0  0
 21 24  1  0  0  0  0
 24 25  1  0  0  0  0
 24 31  1  0  0  0  0
 25 26  1  0  0  0  0
 25 27  1  0  0  0  0
 25 28  1  0  0  0  0
 28 29  1  0  0  0  0
 28 30  1  0  0  0  0
 31 32  1  0  0  0  0
 31 35  2  0  0  0  0
 32 36  1  0  0  0  0
 32 41  2  0  0  0  0
 36 37  1  0  0  0  0
 36 38  1  0  0  0  0
 36 39  1  0  0  0  0
 39 40  2  0  0  0  0
 40 41  1  0  0  0  0
 41 42  1  0  0  0  0
M  END
>  <Activity>
7.1537

>  <AM1_dipole>
6.51777

>  <AM1_E>
-115345

>  <AM1_Eele>
-806373

>  <AM1_HF>
10.4015

>  <AM1_HOMO>
-8.91586

>  <AM1_IP>
8.91586

>  <AM1_LUMO>
-0.95741

>  <diameter>
14

>  <petitjean>
0.5

>  <petitjeanSC>
1

>  <radius>
7

>  <VDistEq>
3.60077

>  <VDistMa>
9.1899

>  <weinerPath>
1979

>  <weinerPol>
44

>  <BCUT_PEOE_0>
-2.71253

>  <BCUT_PEOE_1>
-0.53976

>  <BCUT_PEOE_2>
0.576248

>  <BCUT_PEOE_3>
2.65452

>  <BCUT_SLOGP_0>
-2.86185

>  <BCUT_SLOGP_1>
-0.423413

>  <BCUT_SLOGP_2>
0.704977

>  <BCUT_SLOGP_3>
2.50699

>  <BCUT_SMR_0>
-2.4332

>  <BCUT_SMR_1>
-0.392295

>  <BCUT_SMR_2>
0.727024

>  <BCUT_SMR_3>
2.92371

>  <GCUT_PEOE_0>
-0.859949

>  <GCUT_PEOE_1>
-0.403738

>  <GCUT_PEOE_2>
0.0529767

>  <GCUT_PEOE_3>
2.63689

>  <GCUT_SLOGP_0>
-0.976513

>  <GCUT_SLOGP_1>
-0.336741

>  <GCUT_SLOGP_2>
0.14186

>  <GCUT_SLOGP_3>
2.59804

>  <GCUT_SMR_0>
-0.50927

>  <GCUT_SMR_1>
-0.191339

>  <GCUT_SMR_2>
0.241627

>  <GCUT_SMR_3>
2.89915

>  <a_aro>
9

>  <a_count>
43

>  <a_IC>
77.9062

>  <a_ICM>
1.81177

>  <a_nH>
16

>  <b_1rotN>
5

>  <b_1rotR>
0.166667

>  <b_ar>
10

>  <b_count>
46

>  <b_double>
5

>  <b_rotN>
5

>  <b_rotR>
0.166667

>  <b_single>
31

>  <b_triple>
0

>  <chi0v>
14.3138

>  <chi0v_C>
10.4223

>  <chi1v>
8.5015

>  <chi1v_C>
4.67492

>  <chiral>
0

>  <chiral_u>
0

>  <nmol>
1

>  <reactive>
0

>  <rings>
4

>  <Weight>
369.356

>  <a_heavy>
27

>  <a_nB>
0

>  <a_nBr>
0

>  <a_nC>
18

>  <a_nCl>
0

>  <a_nF>
1

>  <a_nI>
0

>  <a_nN>
5

>  <a_nO>
3

>  <a_nP>
0

>  <a_nS>
0

>  <b_heavy>
30

>  <chi0>
18.9659

>  <chi0_C>
11.6899

>  <chi1>
13.0586

>  <chi1_C>
6.04124

>  <FCharge>
0

>  <VAdjEq>
0.410248

>  <VAdjMa>
5.90689

>  <zagreb>
146

>  <balabanJ>
1.30373

>  <PEOE_PC+>
2.50965

>  <PEOE_PC->
-2.50965

>  <PEOE_RPC+>
0.117587

>  <PEOE_RPC->
0.143396

>  <PEOE_VSA+0>
78.4233

>  <PEOE_VSA+1>
98.3361

>  <PEOE_VSA+2>
9.02085

>  <PEOE_VSA+3>
8.61901

>  <PEOE_VSA+4>
0

>  <PEOE_VSA+5>
34.3576

>  <PEOE_VSA+6>
0

>  <PEOE_VSA-0>
24.5098

>  <PEOE_VSA-1>
12.2549

>  <PEOE_VSA-2>
0

>  <PEOE_VSA-3>
18.8421

>  <PEOE_VSA-4>
11.9086

>  <PEOE_VSA-5>
40.7008

>  <PEOE_VSA-6>
0.136891

>  <PEOE_VSA_FHYD>
0.741616

>  <PEOE_VSA_FNEG>
0.321418

>  <PEOE_VSA_FPNEG>
0.156466

>  <PEOE_VSA_FPOL>
0.258384

>  <PEOE_VSA_FPOS>
0.678582

>  <PEOE_VSA_FPPOS>
0.101918

>  <PEOE_VSA_HYD>
250.006

>  <PEOE_VSA_NEG>
108.353

>  <PEOE_VSA_PNEG>
52.7463

>  <PEOE_VSA_POL>
87.1039

>  <PEOE_VSA_POS>
228.757

>  <PEOE_VSA_PPOS>
34.3576

>  <PC+>
4.75

>  <PC->
-4.751

>  <Q_PC+>
4.75

>  <Q_PC->
-4.751

>  <Q_RPC+>
0.138105

>  <Q_RPC->
0.138918

>  <Q_VSA_FHYD>
0.478491

>  <Q_VSA_FNEG>
0.403663

>  <Q_VSA_FPNEG>
0.198356

>  <Q_VSA_FPOL>
0.521509

>  <Q_VSA_FPOS>
0.596337

>  <Q_VSA_FPPOS>
0.323153

>  <Q_VSA_HYD>
161.304

>  <Q_VSA_NEG>
136.079

>  <Q_VSA_PNEG>
66.8677

>  <Q_VSA_POL>
175.806

>  <Q_VSA_POS>
201.031

>  <Q_VSA_PPOS>
108.938

>  <RPC+>
0.138105

>  <RPC->
0.138918

>  <lip_acc>
8

>  <lip_don>
1

>  <lip_druglike>
1

>  <lip_violation>
0

>  <opr_brigid>
21

>  <opr_leadlike>
1

>  <opr_nring>
4

>  <opr_nrot>
5

>  <opr_violation>
0

>  <E>
75.4153

>  <E_ang>
21.9405

>  <E_ele>
19.151

>  <E_nb>
52.3236

>  <E_oop>
0.101401

>  <E_sol>
-23.5815

>  <E_stb>
-0.519379

>  <E_str>
5.29711

>  <E_strain>
0.00401982

>  <E_tor>
-3.72796

>  <E_vdw>
33.1725

>  <E_rele>
0

>  <E_rnb>
0

>  <E_rsol>
0

>  <E_rvdw>
0

>  <Kier1>
20.28

>  <Kier2>
8.78853

>  <Kier3>
4.16

>  <KierA1>
13.9101

>  <KierA2>
5.93293

>  <KierA3>
2.77518

>  <KierFlex>
3.05659

>  <logS>
-3.02709

>  <MNDO_dipole>
6.73398

>  <MNDO_E>
-115456

>  <MNDO_Eele>
-801939

>  <MNDO_HF>
-32.3319

>  <MNDO_HOMO>
-9.00099

>  <MNDO_IP>
9.00099

>  <MNDO_LUMO>
-1.00108

>  <apol>
50.8117

>  <bpol>
27.5083

>  <mr>
9.52799

>  <dipole>
1.53987

>  <dipoleX>
-0.531019

>  <dipoleY>
-1.21753

>  <dipoleZ>
-0.778983

>  <pmi>
8001.91

>  <pmiX>
6650.97

>  <pmiY>
994.83

>  <pmiZ>
356.11

>  <rgyr>
4.65451

>  <a_acc>
5

>  <a_acid>
0

>  <a_base>
0

>  <a_don>
1

>  <a_hyd>
16

>  <vsa_acc>
59.5428

>  <vsa_acid>
0

>  <vsa_base>
0

>  <vsa_don>
5.68258

>  <vsa_hyd>
223.777

>  <vsa_other>
34.3576

>  <vsa_pol>
65.2254

>  <PM3_dipole>
6.98424

>  <PM3_E>
-103986

>  <PM3_Eele>
-792952

>  <PM3_HF>
-39.4441

>  <PM3_HOMO>
-8.97968

>  <PM3_IP>
8.97968

>  <PM3_LUMO>
-1.08112

>  <SlogP>
1.5102

>  <SlogP_VSA0>
0

>  <SlogP_VSA1>
22.4538

>  <SlogP_VSA2>
73.631

>  <SlogP_VSA3>
92.1979

>  <SlogP_VSA4>
27.0478

>  <SlogP_VSA5>
36.5116

>  <SlogP_VSA6>
0

>  <SlogP_VSA7>
92.0754

>  <SlogP_VSA8>
0

>  <SlogP_VSA9>
14.9601

>  <SMR>
9.35532

>  <SMR_VSA0>
71.5866

>  <SMR_VSA1>
54.5348

>  <SMR_VSA2>
25.9065

>  <SMR_VSA3>
6.37115

>  <SMR_VSA4>
4.7171

>  <SMR_VSA5>
87.3583

>  <SMR_VSA6>
108.403

>  <SMR_VSA7>
0

>  <ASA>
591.813

>  <ASA+>
205.015

>  <ASA->
236.535

>  <ASA_H>
398.461

>  <ASA_P>
193.352

>  <CASA+>
973.819

>  <CASA->
1123.78

>  <DASA>
31.52

>  <DCASA>
149.957

>  <FASA+>
0.346418

>  <FASA->
0.399678

>  <FASA_H>
0.673288

>  <FASA_P>
0.326712

>  <FCASA+>
1.64548

>  <FCASA->
1.89887

>  <VSA>
357.961

>  <TPSA>
98.2

>  <density>
0.818439

>  <vdw_area>
337.11

>  <vdw_vol>
451.294

>  <vsurf_A>
4.69833

>  <vsurf_CP>
0.07074

>  <vsurf_CW1>
2.82388

>  <vsurf_CW2>
2.48072

>  <vsurf_CW3>
1.79187

>  <vsurf_CW4>
0.887372

>  <vsurf_CW5>
0.393984

>  <vsurf_CW6>
0.127143

>  <vsurf_CW7>
0.00538783

>  <vsurf_CW8>
0

>  <vsurf_D1>
732.75

>  <vsurf_D2>
431.125

>  <vsurf_D3>
316

>  <vsurf_D4>
253.75

>  <vsurf_D5>
210.5

>  <vsurf_D6>
168.5

>  <vsurf_D7>
111.875

>  <vsurf_D8>
67.75

>  <vsurf_DD12>
0.5

>  <vsurf_DD13>
5.40833

>  <vsurf_DD23>
5.24404

>  <vsurf_DW12>
5.31507

>  <vsurf_DW13>
0.5

>  <vsurf_DW23>
5.65685

>  <vsurf_EDmin1>
-2.65492

>  <vsurf_EDmin2>
-2.61483

>  <vsurf_EDmin3>
-2.59751

>  <vsurf_EWmin1>
-5.49314

>  <vsurf_EWmin2>
-5.33383

>  <vsurf_EWmin3>
-5.32176

>  <vsurf_G>
1.33243

>  <vsurf_HB1>
440.125

>  <vsurf_HB2>
570.625

>  <vsurf_HB3>
447.25

>  <vsurf_HB4>
174.125

>  <vsurf_HB5>
62.625

>  <vsurf_HB6>
15.75

>  <vsurf_HB7>
1.125

>  <vsurf_HB8>
0

>  <vsurf_HL1>
0.219146

>  <vsurf_HL2>
0.0689655

>  <vsurf_ID1>
1.09809

>  <vsurf_ID2>
1.00278

>  <vsurf_ID3>
1.11186

>  <vsurf_ID4>
1.42155

>  <vsurf_ID5>
1.57059

>  <vsurf_ID6>
1.6924

>  <vsurf_ID7>
1.07857

>  <vsurf_ID8>
1.26192

>  <vsurf_IW1>
1.0802

>  <vsurf_IW2>
1.74391

>  <vsurf_IW3>
2.10922

>  <vsurf_IW4>
2.58662

>  <vsurf_IW5>
3.74688

>  <vsurf_IW6>
5.0361

>  <vsurf_IW7>
3.21753

>  <vsurf_IW8>
0

>  <vsurf_R>
1.41719

>  <vsurf_S>
537.331

>  <vsurf_V>
761.5

>  <vsurf_W1>
1472.25

>  <vsurf_W2>
978.875

>  <vsurf_W3>
526.625

>  <vsurf_W4>
190.375

>  <vsurf_W5>
69.25

>  <vsurf_W6>
17.5

>  <vsurf_W7>
1.125

>  <vsurf_W8>
0

>  <vsurf_Wp1>
1032.13

>  <vsurf_Wp2>
408.25

>  <vsurf_Wp3>
79.375

>  <vsurf_Wp4>
16.25

>  <vsurf_Wp5>
6.625

>  <vsurf_Wp6>
1.75

>  <vsurf_Wp7>
0

>  <vsurf_Wp8>
0

>  <dens>
1.13561

>  <glob>
0.0561656

>  <std_dim1>
4.45813

>  <std_dim2>
1.37561

>  <std_dim3>
1.05654

>  <vol>
325.25

>  <logP(o/w)>
0.55

$$$$
D9.cdx
  MOE2008           3D

 49 52  0  0  1  0  0  0  0  0999 V2000
   -6.5610  -10.2860   -0.2810 C   0  0  0  0  0  0  0  0  0  0  0  0
   -7.3080   -9.5280   -0.0620 H   0  0  0  0  0  0  0  0  0  0  0  0
   -6.8710  -11.3570   -1.1120 C   0  0  0  0  0  0  0  0  0  0  0  0
   -7.8660  -11.4330   -1.5430 H   0  0  0  0  0  0  0  0  0  0  0  0
   -5.9210  -12.3390   -1.4000 C   0  0  0  0  0  0  0  0  0  0  0  0
   -6.1700  -13.1750   -2.0470 H   0  0  0  0  0  0  0  0  0  0  0  0
   -4.6500  -12.2060   -0.8270 C   0  0  0  0  0  0  0  0  0  0  0  0
   -4.2990  -11.1430    0.0130 C   0  0  0  0  0  0  0  0  0  0  0  0
   -5.2880  -10.1720    0.2820 C   0  0  0  0  0  0  0  0  0  0  0  0
   -3.5460  -13.0150   -0.9440 N   0  0  0  0  0  0  0  0  0  0  0  0
   -3.5090  -13.8630   -1.4940 H   0  0  0  0  0  0  0  0  0  0  0  0
   -2.5100  -12.5070   -0.2100 C   0  0  0  0  0  0  0  0  0  0  0  0
   -1.5570  -13.0220   -0.1940 H   0  0  0  0  0  0  0  0  0  0  0  0
   -2.9320  -11.3410    0.4050 C   0  0  0  0  0  0  0  0  0  0  0  0
   -2.1000  -10.5100    1.2700 C   0  0  0  0  0  0  0  0  0  0  0  0
   -0.6850  -10.9500    1.5890 C   0  0  0  0  0  0  0  0  0  0  0  0
    0.3370  -10.4460    0.7870 N   0  0  0  0  0  0  0  0  0  0  0  0
    1.7070  -10.9690    0.9790 C   0  0  3  0  0  0  0  0  0  0  0  0
    1.7760  -11.4530    1.9610 H   0  0  0  0  0  0  0  0  0  0  0  0
    2.7690   -9.8560    0.9110 C   0  0  0  0  0  0  0  0  0  0  0  0
    3.7730  -10.2830    0.8980 H   0  0  0  0  0  0  0  0  0  0  0  0
    2.6950   -9.2300    1.8090 H   0  0  0  0  0  0  0  0  0  0  0  0
    2.5500   -8.9560   -0.2320 N   0  0  0  0  0  0  0  0  0  0  0  0
    1.2060   -8.3820   -0.2990 C   0  0  0  0  0  0  0  0  0  0  0  0
    1.0850   -7.7490    0.5880 H   0  0  0  0  0  0  0  0  0  0  0  0
    1.0890   -7.7410   -1.1790 H   0  0  0  0  0  0  0  0  0  0  0  0
    0.1410   -9.4800   -0.3080 C   0  0  0  0  0  0  0  0  0  0  0  0
    0.1980  -10.0480   -1.2440 H   0  0  0  0  0  0  0  0  0  0  0  0
   -0.8510   -9.0240   -0.2630 H   0  0  0  0  0  0  0  0  0  0  0  0
    3.4760   -8.6380   -1.2210 C   0  0  0  0  0  0  0  0  0  0  0  0
    4.8860   -9.0520   -1.0450 C   0  0  0  0  0  0  0  0  0  0  0  0
   -2.4660   -9.4480    1.7640 O   0  0  0  0  0  0  0  0  0  0  0  0
   -0.5340  -11.7430    2.5120 O   0  0  0  0  0  0  0  0  0  0  0  0
    3.1990   -8.0310   -2.2520 O   0  0  0  0  0  0  0  0  0  0  0  0
   -5.0490   -9.1190    1.0770 F   0  0  0  0  0  0  0  0  0  0  0  0
    5.4750   -9.8710   -2.0120 C   0  0  0  0  0  0  0  0  0  0  0  0
    4.8980  -10.2160   -2.8670 H   0  0  0  0  0  0  0  0  0  0  0  0
    6.8120  -10.2430   -1.8760 C   0  0  0  0  0  0  0  0  0  0  0  0
    7.2790  -10.8830   -2.6210 H   0  0  0  0  0  0  0  0  0  0  0  0
    7.5570   -9.7850   -0.7870 C   0  0  0  0  0  0  0  0  0  0  0  0
    8.6000  -10.0740   -0.6840 H   0  0  0  0  0  0  0  0  0  0  0  0
    6.9710   -8.9470    0.1650 C   0  0  0  0  0  0  0  0  0  0  0  0
    7.5590   -8.5840    1.0030 H   0  0  0  0  0  0  0  0  0  0  0  0
    5.6340   -8.5700    0.0340 C   0  0  0  0  0  0  0  0  0  0  0  0
    5.1860   -7.9040    0.7660 H   0  0  0  0  0  0  0  0  0  0  0  0
    1.9600  -12.0800   -0.0410 C   0  0  0  0  0  0  0  0  0  0  0  0
    3.2510  -12.4730   -0.0870 O   0  0  0  0  0  0  0  0  0  0  0  0
    3.2720  -13.2100   -0.7340 H   0  0  0  0  0  0  0  0  0  0  0  0
    1.1220  -12.6570   -0.7200 O   0  0  0  0  0  0  0  0  0  0  0  0
  1  2  1  0  0  0  0
  1  3  1  0  0  0  0
  1  9  2  0  0  0  0
  3  4  1  0  0  0  0
  3  5  2  0  0  0  0
  5  6  1  0  0  0  0
  5  7  1  0  0  0  0
  7  8  2  0  0  0  0
  7 10  1  0  0  0  0
  8  9  1  0  0  0  0
  8 14  1  0  0  0  0
  9 35  1  0  0  0  0
 10 11  1  0  0  0  0
 10 12  1  0  0  0  0
 12 13  1  0  0  0  0
 12 14  2  0  0  0  0
 14 15  1  0  0  0  0
 15 16  1  0  0  0  0
 15 32  2  0  0  0  0
 16 17  1  0  0  0  0
 16 33  2  0  0  0  0
 17 18  1  0  0  0  0
 17 27  1  0  0  0  0
 18 19  1  0  0  0  0
 18 20  1  0  0  0  0
 18 46  1  0  0  0  0
 20 21  1  0  0  0  0
 20 22  1  0  0  0  0
 20 23  1  0  0  0  0
 23 24  1  0  0  0  0
 23 30  1  0  0  0  0
 24 25  1  0  0  0  0
 24 26  1  0  0  0  0
 24 27  1  0  0  0  0
 27 28  1  0  0  0  0
 27 29  1  0  0  0  0
 30 31  1  0  0  0  0
 30 34  2  0  0  0  0
 31 36  1  0  0  0  0
 31 44  2  0  0  0  0
 36 37  1  0  0  0  0
 36 38  2  0  0  0  0
 38 39  1  0  0  0  0
 38 40  1  0  0  0  0
 40 41  1  0  0  0  0
 40 42  2  0  0  0  0
 42 43  1  0  0  0  0
 42 44  1  0  0  0  0
 44 45  1  0  0  0  0
 46 47  1  0  0  0  0
 46 49  2  0  0  0  0
 47 48  1  0  0  0  0
M  END
>  <Activity>
6.0777

>  <AM1_dipole>
5.44356

>  <AM1_E>
-133076

>  <AM1_Eele>
-1.02103e+006

>  <AM1_HF>
-126.605

>  <AM1_HOMO>
-8.80302

>  <AM1_IP>
8.80302

>  <AM1_LUMO>
-0.566

>  <diameter>
15

>  <petitjean>
0.466667

>  <petitjeanSC>
0.875

>  <radius>
8

>  <VDistEq>
3.63635

>  <VDistMa>
9.61951

>  <weinerPath>
2720

>  <weinerPol>
54

>  <BCUT_PEOE_0>
-2.70525

>  <BCUT_PEOE_1>
-0.63744

>  <BCUT_PEOE_2>
0.646629

>  <BCUT_PEOE_3>
2.69419

>  <BCUT_SLOGP_0>
-2.88527

>  <BCUT_SLOGP_1>
-0.53808

>  <BCUT_SLOGP_2>
0.771561

>  <BCUT_SLOGP_3>
2.5085

>  <BCUT_SMR_0>
-2.43901

>  <BCUT_SMR_1>
-0.432029

>  <BCUT_SMR_2>
0.824479

>  <BCUT_SMR_3>
2.94583

>  <GCUT_PEOE_0>
-0.859898

>  <GCUT_PEOE_1>
-0.43891

>  <GCUT_PEOE_2>
0.080099

>  <GCUT_PEOE_3>
2.7253

>  <GCUT_SLOGP_0>
-0.982568

>  <GCUT_SLOGP_1>
-0.337122

>  <GCUT_SLOGP_2>
0.164454

>  <GCUT_SLOGP_3>
2.67231

>  <GCUT_SMR_0>
-0.506425

>  <GCUT_SMR_1>
-0.235734

>  <GCUT_SMR_2>
0.193051

>  <GCUT_SMR_3>
2.98486

>  <a_aro>
15

>  <a_count>
49

>  <a_IC>
85.5901

>  <a_ICM>
1.74674

>  <a_nH>
18

>  <b_1rotN>
6

>  <b_1rotR>
0.176471

>  <b_ar>
16

>  <b_count>
52

>  <b_double>
4

>  <b_rotN>
6

>  <b_rotR>
0.176471

>  <b_single>
32

>  <b_triple>
0

>  <chi0v>
16.2474

>  <chi0v_C>
12.3948

>  <chi1v>
9.56216

>  <chi1v_C>
6.1403

>  <chiral>
1

>  <chiral_u>
1

>  <nmol>
1

>  <reactive>
0

>  <rings>
4

>  <Weight>
423.4

>  <a_heavy>
31

>  <a_nB>
0

>  <a_nBr>
0

>  <a_nC>
22

>  <a_nCl>
0

>  <a_nF>
1

>  <a_nI>
0

>  <a_nN>
3

>  <a_nO>
5

>  <a_nP>
0

>  <a_nS>
0

>  <b_heavy>
34

>  <chi0>
22.1206

>  <chi0_C>
14.2588

>  <chi1>
14.8799

>  <chi1_C>
8.28282

>  <FCharge>
0

>  <VAdjEq>
0.368752

>  <VAdjMa>
6.08746

>  <zagreb>
166

>  <balabanJ>
1.4095

>  <PEOE_PC+>
3.02698

>  <PEOE_PC->
-3.02698

>  <PEOE_RPC+>
0.0977014

>  <PEOE_RPC->
0.118889

>  <PEOE_VSA+0>
54.2472

>  <PEOE_VSA+1>
83.647

>  <PEOE_VSA+2>
12.1668

>  <PEOE_VSA+3>
8.61901

>  <PEOE_VSA+4>
10.3242

>  <PEOE_VSA+5>
49.0661

>  <PEOE_VSA+6>
0

>  <PEOE_VSA-0>
49.0196

>  <PEOE_VSA-1>
49.0196

>  <PEOE_VSA-2>
0

>  <PEOE_VSA-3>
0

>  <PEOE_VSA-4>
11.9086

>  <PEOE_VSA-5>
54.2677

>  <PEOE_VSA-6>
7.90443

>  <PEOE_VSA_FHYD>
0.657934

>  <PEOE_VSA_FNEG>
0.441118

>  <PEOE_VSA_FPNEG>
0.189858

>  <PEOE_VSA_FPOL>
0.342066

>  <PEOE_VSA_FPOS>
0.558882

>  <PEOE_VSA_FPPOS>
0.152208

>  <PEOE_VSA_HYD>
256.719

>  <PEOE_VSA_NEG>
172.12

>  <PEOE_VSA_PNEG>
74.0807

>  <PEOE_VSA_POL>
133.471

>  <PEOE_VSA_POS>
218.07

>  <PEOE_VSA_PPOS>
59.3903

>  <PC+>
6.179

>  <PC->
-6.18

>  <Q_PC+>
6.179

>  <Q_PC->
-6.18

>  <Q_RPC+>
0.106652

>  <Q_RPC->
0.106796

>  <Q_VSA_FHYD>
0.514305

>  <Q_VSA_FNEG>
0.506515

>  <Q_VSA_FPNEG>
0.201904

>  <Q_VSA_FPOL>
0.485695

>  <Q_VSA_FPOS>
0.493485

>  <Q_VSA_FPPOS>
0.28379

>  <Q_VSA_HYD>
200.677

>  <Q_VSA_NEG>
197.637

>  <Q_VSA_PNEG>
78.7811

>  <Q_VSA_POL>
189.513

>  <Q_VSA_POS>
192.553

>  <Q_VSA_PPOS>
110.732

>  <RPC+>
0.106652

>  <RPC->
0.106796

>  <lip_acc>
8

>  <lip_don>
2

>  <lip_druglike>
1

>  <lip_violation>
0

>  <opr_brigid>
22

>  <opr_leadlike>
1

>  <opr_nring>
4

>  <opr_nrot>
6

>  <opr_violation>
0

>  <E>
99.3337

>  <E_ang>
10.5437

>  <E_ele>
28.2019

>  <E_nb>
75.1438

>  <E_oop>
0.328007

>  <E_sol>
-24.7168

>  <E_stb>
0.795863

>  <E_str>
6.57512

>  <E_strain>
0.00528962

>  <E_tor>
5.94724

>  <E_vdw>
46.9419

>  <E_rele>
0

>  <E_rnb>
3.90799e-014

>  <E_rsol>
3.90799e-014

>  <E_rvdw>
0

>  <Kier1>
24.1349

>  <Kier2>
10.5081

>  <Kier3>
5.08651

>  <KierA1>
16.5404

>  <KierA2>
7.10305

>  <KierA3>
3.40367

>  <KierFlex>
3.78991

>  <logS>
-4.32041

>  <MNDO_dipole>
5.26483

>  <MNDO_E>
-133229

>  <MNDO_Eele>
-1.00868e+006

>  <MNDO_HF>
-142.309

>  <MNDO_HOMO>
-8.882

>  <MNDO_IP>
8.882

>  <MNDO_LUMO>
-0.64515

>  <apol>
58.5893

>  <bpol>
29.3327

>  <mr>
11.0409

>  <dipole>
1.43241

>  <dipoleX>
0.745146

>  <dipoleY>
-1.11617

>  <dipoleZ>
-0.500723

>  <pmi>
8871.65

>  <pmiX>
7392.8

>  <pmiY>
906.7

>  <pmiZ>
572.15

>  <rgyr>
4.57748

>  <a_acc>
5

>  <a_acid>
0

>  <a_base>
0

>  <a_don>
3

>  <a_hyd>
19

>  <vsa_acc>
40.7008

>  <vsa_acid>
0

>  <vsa_base>
0

>  <vsa_don>
5.68258

>  <vsa_hyd>
248.62

>  <vsa_other>
49.0661

>  <vsa_pol>
73.5172

>  <PM3_dipole>
4.85135

>  <PM3_E>
-121726

>  <PM3_Eele>
-1.00019e+006

>  <PM3_HF>
-149.117

>  <PM3_HOMO>
-8.84122

>  <PM3_IP>
8.84122

>  <PM3_LUMO>
-0.63911

>  <SlogP>
1.9275

>  <SlogP_VSA0>
0

>  <SlogP_VSA1>
30.1993

>  <SlogP_VSA2>
77.6129

>  <SlogP_VSA3>
80.704

>  <SlogP_VSA4>
54.0956

>  <SlogP_VSA5>
0

>  <SlogP_VSA6>
0

>  <SlogP_VSA7>
163.077

>  <SlogP_VSA8>
0

>  <SlogP_VSA9>
14.9601

>  <SMR>
10.8069

>  <SMR_VSA0>
95.4489

>  <SMR_VSA1>
21.2087

>  <SMR_VSA2>
51.2918

>  <SMR_VSA3>
10.3531

>  <SMR_VSA4>
4.7171

>  <SMR_VSA5>
158.36

>  <SMR_VSA6>
79.2694

>  <SMR_VSA7>
0

>  <ASA>
637.772

>  <ASA+>
275.53

>  <ASA->
279.593

>  <ASA_H>
432.052

>  <ASA_P>
205.72

>  <CASA+>
1702.5

>  <CASA->
1727.88

>  <DASA>
4.06262

>  <DCASA>
25.3825

>  <FASA+>
0.43202

>  <FASA->
0.43839

>  <FASA_H>
0.677439

>  <FASA_P>
0.322561

>  <FCASA+>
2.66945

>  <FCASA->
2.70925

>  <VSA>
409.566

>  <TPSA>
110.78

>  <density>
0.809693

>  <vdw_area>
390.19

>  <vdw_vol>
522.914

>  <vsurf_A>
1.44277

>  <vsurf_CP>
0.0707426

>  <vsurf_CW1>
2.65329

>  <vsurf_CW2>
2.15688

>  <vsurf_CW3>
1.46083

>  <vsurf_CW4>
0.841976

>  <vsurf_CW5>
0.362102

>  <vsurf_CW6>
0.122249

>  <vsurf_CW7>
0.0203309

>  <vsurf_CW8>
0.00498461

>  <vsurf_D1>
787.75

>  <vsurf_D2>
447.25

>  <vsurf_D3>
332.625

>  <vsurf_D4>
283.375

>  <vsurf_D5>
244.875

>  <vsurf_D6>
195.875

>  <vsurf_D7>
99.875

>  <vsurf_D8>
46.75

>  <vsurf_DD12>
0.707107

>  <vsurf_DD13>
0.5

>  <vsurf_DD23>
0.5

>  <vsurf_DW12>
0.5

>  <vsurf_DW13>
0.5

>  <vsurf_DW23>
0.707107

>  <vsurf_EDmin1>
-2.93402

>  <vsurf_EDmin2>
-2.85611

>  <vsurf_EDmin3>
-2.78326

>  <vsurf_EWmin1>
-6.91765

>  <vsurf_EWmin2>
-6.75985

>  <vsurf_EWmin3>
-6.61261

>  <vsurf_G>
1.34063

>  <vsurf_HB1>
327.625

>  <vsurf_HB2>
416.75

>  <vsurf_HB3>
399.125

>  <vsurf_HB4>
174.625

>  <vsurf_HB5>
58.375

>  <vsurf_HB6>
18

>  <vsurf_HB7>
3.75

>  <vsurf_HB8>
0.875

>  <vsurf_HL1>
0.205186

>  <vsurf_HL2>
0.0714601

>  <vsurf_ID1>
0.63457

>  <vsurf_ID2>
0.666031

>  <vsurf_ID3>
0.771297

>  <vsurf_ID4>
0.93777

>  <vsurf_ID5>
1.05207

>  <vsurf_ID6>
1.0145

>  <vsurf_ID7>
0.679658

>  <vsurf_ID8>
1.30611

>  <vsurf_IW1>
0.250721

>  <vsurf_IW2>
0.375367

>  <vsurf_IW3>
0.48907

>  <vsurf_IW4>
0.716174

>  <vsurf_IW5>
0.963107

>  <vsurf_IW6>
1.4562

>  <vsurf_IW7>
3.0918

>  <vsurf_IW8>
5.39282

>  <vsurf_R>
1.46532

>  <vsurf_S>
585.113

>  <vsurf_V>
857.375

>  <vsurf_W1>
1429.25

>  <vsurf_W2>
895.375

>  <vsurf_W3>
501.125

>  <vsurf_W4>
198.375

>  <vsurf_W5>
68.25

>  <vsurf_W6>
20.25

>  <vsurf_W7>
4

>  <vsurf_W8>
0.875

>  <vsurf_Wp1>
1101.63

>  <vsurf_Wp2>
478.625

>  <vsurf_Wp3>
102

>  <vsurf_Wp4>
23.75

>  <vsurf_Wp5>
9.875

>  <vsurf_Wp6>
2.25

>  <vsurf_Wp7>
0.25

>  <vsurf_Wp8>
0

>  <dens>
1.14124

>  <glob>
0.066894

>  <std_dim1>
4.52427

>  <std_dim2>
1.50034

>  <std_dim3>
1.17015

>  <vol>
371

>  <logP(o/w)>
1.86

$$$$
D9.cdx
  MOE2008           3D

 49 52  0  0  1  0  0  0  0  0999 V2000
   -6.3610  -14.5800   -0.8730 C   0  0  0  0  0  0  0  0  0  0  0  0
   -6.9410  -14.0280   -1.6070 H   0  0  0  0  0  0  0  0  0  0  0  0
   -6.9760  -15.1020    0.2590 C   0  0  0  0  0  0  0  0  0  0  0  0
   -8.0430  -14.9570    0.4080 H   0  0  0  0  0  0  0  0  0  0  0  0
   -6.2400  -15.8150    1.2090 C   0  0  0  0  0  0  0  0  0  0  0  0
   -6.7250  -16.2240    2.0910 H   0  0  0  0  0  0  0  0  0  0  0  0
   -4.8670  -15.9830    0.9830 C   0  0  0  0  0  0  0  0  0  0  0  0
   -4.2130  -15.4740   -0.1440 C   0  0  0  0  0  0  0  0  0  0  0  0
   -4.9910  -14.7590   -1.0800 C   0  0  0  0  0  0  0  0  0  0  0  0
   -3.9260  -16.6330    1.7440 N   0  0  0  0  0  0  0  0  0  0  0  0
   -4.1180  -17.1030    2.6190 H   0  0  0  0  0  0  0  0  0  0  0  0
   -2.6990  -16.5520    1.1460 C   0  0  0  0  0  0  0  0  0  0  0  0
   -1.8390  -17.0170    1.6120 H   0  0  0  0  0  0  0  0  0  0  0  0
   -2.8280  -15.8420   -0.0360 C   0  0  0  0  0  0  0  0  0  0  0  0
   -1.7330  -15.5540   -0.9570 C   0  0  0  0  0  0  0  0  0  0  0  0
   -0.3280  -16.0170   -0.6210 C   0  0  0  0  0  0  0  0  0  0  0  0
    0.5430  -15.0770   -0.0740 N   0  0  0  0  0  0  0  0  0  0  0  0
    1.8900  -15.5260    0.2980 C   0  0  0  0  0  0  0  0  0  0  0  0
    1.7840  -16.3640    0.9970 H   0  0  0  0  0  0  0  0  0  0  0  0
    2.3660  -15.9150   -0.6110 H   0  0  0  0  0  0  0  0  0  0  0  0
    2.7440  -14.4020    0.9160 C   0  0  3  0  0  0  0  0  0  0  0  0
    2.2390  -14.0580    1.8300 H   0  0  0  0  0  0  0  0  0  0  0  0
    2.7030  -13.2180    0.0220 N   0  0  0  0  0  0  0  0  0  0  0  0
    1.3490  -12.7230   -0.2720 C   0  0  0  0  0  0  0  0  0  0  0  0
    1.2290  -11.7400    0.1980 H   0  0  0  0  0  0  0  0  0  0  0  0
    1.2860  -12.5750   -1.3580 H   0  0  0  0  0  0  0  0  0  0  0  0
    0.2190  -13.6650    0.1740 C   0  0  0  0  0  0  0  0  0  0  0  0
   -0.7170  -13.3710   -0.3070 H   0  0  0  0  0  0  0  0  0  0  0  0
    0.0590  -13.5720    1.2550 H   0  0  0  0  0  0  0  0  0  0  0  0
    3.7370  -12.5030   -0.5830 C   0  0  0  0  0  0  0  0  0  0  0  0
    5.0600  -13.1190   -0.7830 C   0  0  0  0  0  0  0  0  0  0  0  0
   -1.8680  -14.9390   -2.0110 O   0  0  0  0  0  0  0  0  0  0  0  0
   -0.0500  -17.1930   -0.8300 O   0  0  0  0  0  0  0  0  0  0  0  0
    3.5940  -11.3740   -1.0480 O   0  0  0  0  0  0  0  0  0  0  0  0
   -4.4520  -14.2300   -2.1880 F   0  0  0  0  0  0  0  0  0  0  0  0
    5.1920  -14.2030   -1.6590 C   0  0  0  0  0  0  0  0  0  0  0  0
    4.3210  -14.6230   -2.1550 H   0  0  0  0  0  0  0  0  0  0  0  0
    6.4570  -14.7400   -1.8970 C   0  0  0  0  0  0  0  0  0  0  0  0
    6.5710  -15.5860   -2.5700 H   0  0  0  0  0  0  0  0  0  0  0  0
    7.5800  -14.1840   -1.2800 C   0  0  0  0  0  0  0  0  0  0  0  0
    8.5650  -14.6030   -1.4700 H   0  0  0  0  0  0  0  0  0  0  0  0
    7.4450  -13.0810   -0.4330 C   0  0  0  0  0  0  0  0  0  0  0  0
    8.3250  -12.6420    0.0300 H   0  0  0  0  0  0  0  0  0  0  0  0
    6.1840  -12.5370   -0.1910 C   0  0  0  0  0  0  0  0  0  0  0  0
    6.0800  -11.6660    0.4510 H   0  0  0  0  0  0  0  0  0  0  0  0
    4.0870  -14.9310    1.4080 C   0  0  0  0  0  0  0  0  0  0  0  0
    4.7060  -14.1300    1.8220 H   0  0  0  0  0  0  0  0  0  0  0  0
    4.6410  -15.4570    0.6280 H   0  0  0  0  0  0  0  0  0  0  0  0
    3.9260  -15.6580    2.2120 H   0  0  0  0  0  0  0  0  0  0  0  0
  1  2  1  0  0  0  0
  1  3  1  0  0  0  0
  1  9  2  0  0  0  0
  3  4  1  0  0  0  0
  3  5  2  0  0  0  0
  5  6  1  0  0  0  0
  5  7  1  0  0  0  0
  7  8  2  0  0  0  0
  7 10  1  0  0  0  0
  8  9  1  0  0  0  0
  8 14  1  0  0  0  0
  9 35  1  0  0  0  0
 10 11  1  0  0  0  0
 10 12  1  0  0  0  0
 12 13  1  0  0  0  0
 12 14  2  0  0  0  0
 14 15  1  0  0  0  0
 15 16  1  0  0  0  0
 15 32  2  0  0  0  0
 16 17  1  0  0  0  0
 16 33  2  0  0  0  0
 17 18  1  0  0  0  0
 17 27  1  0  0  0  0
 18 19  1  0  0  0  0
 18 20  1  0  0  0  0
 18 21  1  0  0  0  0
 21 22  1  0  0  0  0
 21 23  1  0  0  0  0
 21 46  1  0  0  0  0
 23 24  1  0  0  0  0
 23 30  1  0  0  0  0
 24 25  1  0  0  0  0
 24 26  1  0  0  0  0
 24 27  1  0  0  0  0
 27 28  1  0  0  0  0
 27 29  1  0  0  0  0
 30 31  1  0  0  0  0
 30 34  2  0  0  0  0
 31 36  1  0  0  0  0
 31 44  2  0  0  0  0
 36 37  1  0  0  0  0
 36 38  2  0  0  0  0
 38 39  1  0  0  0  0
 38 40  1  0  0  0  0
 40 41  1  0  0  0  0
 40 42  2  0  0  0  0
 42 43  1  0  0  0  0
 42 44  1  0  0  0  0
 44 45  1  0  0  0  0
 46 47  1  0  0  0  0
 46 48  1  0  0  0  0
 46 49  1  0  0  0  0
M  END
>  <Activity>
8.585

>  <AM1_dipole>
7.87973

>  <AM1_E>
-118918

>  <AM1_Eele>
-897152

>  <AM1_HF>
-17.1478

>  <AM1_HOMO>
-8.86865

>  <AM1_IP>
8.86865

>  <AM1_LUMO>
-0.61072

>  <diameter>
15

>  <petitjean>
0.466667

>  <petitjeanSC>
0.875

>  <radius>
8

>  <VDistEq>
3.65314

>  <VDistMa>
9.40451

>  <weinerPath>
2366

>  <weinerPol>
50

>  <BCUT_PEOE_0>
-2.74803

>  <BCUT_PEOE_1>
-0.636973

>  <BCUT_PEOE_2>
0.644564

>  <BCUT_PEOE_3>
2.69016

>  <BCUT_SLOGP_0>
-2.88324

>  <BCUT_SLOGP_1>
-0.53808

>  <BCUT_SLOGP_2>
0.768871

>  <BCUT_SLOGP_3>
2.57332

>  <BCUT_SMR_0>
-2.47183

>  <BCUT_SMR_1>
-0.432401

>  <BCUT_SMR_2>
0.824198

>  <BCUT_SMR_3>
2.95748

>  <GCUT_PEOE_0>
-0.859947

>  <GCUT_PEOE_1>
-0.389369

>  <GCUT_PEOE_2>
0.080099

>  <GCUT_PEOE_3>
2.72933

>  <GCUT_SLOGP_0>
-0.976593

>  <GCUT_SLOGP_1>
-0.336578

>  <GCUT_SLOGP_2>
0.164142

>  <GCUT_SLOGP_3>
2.70515

>  <GCUT_SMR_0>
-0.514593

>  <GCUT_SMR_1>
-0.216057

>  <GCUT_SMR_2>
0.193051

>  <GCUT_SMR_3>
2.9924

>  <a_aro>
15

>  <a_count>
49

>  <a_IC>
81.0649

>  <a_ICM>
1.65439

>  <a_nH>
20

>  <b_1rotN>
5

>  <b_1rotR>
0.15625

>  <b_ar>
16

>  <b_count>
52

>  <b_double>
3

>  <b_rotN>
5

>  <b_rotR>
0.15625

>  <b_single>
33

>  <b_triple>
0

>  <chi0v>
15.892

>  <chi0v_C>
12.8948

>  <chi1v>
9.4231

>  <chi1v_C>
6.42897

>  <chiral>
1

>  <chiral_u>
1

>  <nmol>
1

>  <reactive>
0

>  <rings>
4

>  <Weight>
393.418

>  <a_heavy>
29

>  <a_nB>
0

>  <a_nBr>
0

>  <a_nC>
22

>  <a_nCl>
0

>  <a_nF>
1

>  <a_nI>
0

>  <a_nN>
3

>  <a_nO>
3

>  <a_nP>
0

>  <a_nS>
0

>  <b_heavy>
32

>  <chi0>
20.5432

>  <chi0_C>
14.6814

>  <chi1>
13.9692

>  <chi1_C>
8.52684

>  <FCharge>
0

>  <VAdjEq>
0.388286

>  <VAdjMa>
6

>  <zagreb>
156

>  <balabanJ>
1.33538

>  <PEOE_PC+>
2.4874

>  <PEOE_PC->
-2.4874

>  <PEOE_RPC+>
0.118641

>  <PEOE_RPC->
0.144678

>  <PEOE_VSA+0>
83.3816

>  <PEOE_VSA+1>
70.4547

>  <PEOE_VSA+2>
9.02085

>  <PEOE_VSA+3>
8.61901

>  <PEOE_VSA+4>
0

>  <PEOE_VSA+5>
34.3576

>  <PEOE_VSA+6>
0

>  <PEOE_VSA-0>
67.7673

>  <PEOE_VSA-1>
49.0196

>  <PEOE_VSA-2>
0

>  <PEOE_VSA-3>
0

>  <PEOE_VSA-4>
11.9086

>  <PEOE_VSA-5>
40.7008

>  <PEOE_VSA-6>
0.136891

>  <PEOE_VSA_FHYD>
0.76795

>  <PEOE_VSA_FNEG>
0.451647

>  <PEOE_VSA_FPNEG>
0.140519

>  <PEOE_VSA_FPOL>
0.23205

>  <PEOE_VSA_FPOS>
0.548353

>  <PEOE_VSA_FPPOS>
0.0915306

>  <PEOE_VSA_HYD>
288.263

>  <PEOE_VSA_NEG>
169.533

>  <PEOE_VSA_PNEG>
52.7463

>  <PEOE_VSA_POL>
87.1039

>  <PEOE_VSA_POS>
205.834

>  <PEOE_VSA_PPOS>
34.3576

>  <PC+>
4.959

>  <PC->
-4.96

>  <Q_PC+>
4.959

>  <Q_PC->
-4.96

>  <Q_RPC+>
0.132285

>  <Q_RPC->
0.133065

>  <Q_VSA_FHYD>
0.61865

>  <Q_VSA_FNEG>
0.469681

>  <Q_VSA_FPNEG>
0.153041

>  <Q_VSA_FPOL>
0.38135

>  <Q_VSA_FPOS>
0.530319

>  <Q_VSA_FPPOS>
0.228309

>  <Q_VSA_HYD>
232.221

>  <Q_VSA_NEG>
176.303

>  <Q_VSA_PNEG>
57.4467

>  <Q_VSA_POL>
143.146

>  <Q_VSA_POS>
199.064

>  <Q_VSA_PPOS>
85.6995

>  <RPC+>
0.132285

>  <RPC->
0.133065

>  <lip_acc>
6

>  <lip_don>
1

>  <lip_druglike>
1

>  <lip_violation>
0

>  <opr_brigid>
22

>  <opr_leadlike>
1

>  <opr_nring>
4

>  <opr_nrot>
5

>  <opr_violation>
0

>  <E>
111.82

>  <E_ang>
13.6445

>  <E_ele>
33.3693

>  <E_nb>
80.6915

>  <E_oop>
0.163816

>  <E_sol>
-19.1679

>  <E_stb>
0.56722

>  <E_str>
6.64374

>  <E_strain>
0.00343414

>  <E_tor>
10.1092

>  <E_vdw>
47.3222

>  <E_rele>
0

>  <E_rnb>
0

>  <E_rsol>
0

>  <E_rvdw>
0

>  <Kier1>
22.2031

>  <Kier2>
9.6465

>  <Kier3>
4.62109

>  <KierA1>
15.3324

>  <KierA2>
6.56574

>  <KierA3>
3.11181

>  <KierFlex>
3.47132

>  <logS>
-4.65178

>  <MNDO_dipole>
5.42862

>  <MNDO_E>
-119014

>  <MNDO_Eele>
-888977

>  <MNDO_HF>
-52.4095

>  <MNDO_HOMO>
-8.86868

>  <MNDO_IP>
8.86868

>  <MNDO_LUMO>
-0.64129

>  <apol>
58.3189

>  <bpol>
30.5611

>  <mr>
10.8036

>  <dipole>
2.04059

>  <dipoleX>
-0.103041

>  <dipoleY>
-0.702568

>  <dipoleZ>
1.91306

>  <pmi>
8730.54

>  <pmiX>
7469.03

>  <pmiY>
797.03

>  <pmiZ>
464.483

>  <rgyr>
4.71079

>  <a_acc>
3

>  <a_acid>
0

>  <a_base>
0

>  <a_don>
1

>  <a_hyd>
20

>  <vsa_acc>
40.7008

>  <vsa_acid>
0

>  <vsa_base>
0

>  <vsa_don>
5.68258

>  <vsa_hyd>
278.029

>  <vsa_other>
34.3576

>  <vsa_pol>
46.3833

>  <PM3_dipole>
8.4175

>  <PM3_E>
-108881

>  <PM3_Eele>
-886886

>  <PM3_HF>
-72.5124

>  <PM3_HOMO>
-8.94398

>  <PM3_IP>
8.94398

>  <PM3_LUMO>
-0.71219

>  <SlogP>
2.8628

>  <SlogP_VSA0>
0

>  <SlogP_VSA1>
22.4538

>  <SlogP_VSA2>
53.7507

>  <SlogP_VSA3>
55.3187

>  <SlogP_VSA4>
54.0956

>  <SlogP_VSA5>
0

>  <SlogP_VSA6>
0

>  <SlogP_VSA7>
163.077

>  <SlogP_VSA8>
0

>  <SlogP_VSA9>
48.2861

>  <SMR>
10.6108

>  <SMR_VSA0>
71.5866

>  <SMR_VSA1>
21.2087

>  <SMR_VSA2>
25.9065

>  <SMR_VSA3>
10.3531

>  <SMR_VSA4>
4.7171

>  <SMR_VSA5>
158.36

>  <SMR_VSA6>
71.5239

>  <SMR_VSA7>
33.326

>  <ASA>
632.343

>  <ASA+>
244.136

>  <ASA->
250.715

>  <ASA_H>
489.201

>  <ASA_P>
143.142

>  <CASA+>
1210.67

>  <CASA->
1243.55

>  <DASA>
6.5793

>  <DCASA>
32.8774

>  <FASA+>
0.386082

>  <FASA->
0.396486

>  <FASA_H>
0.773633

>  <FASA_P>
0.226367

>  <FCASA+>
1.91458

>  <FCASA->
1.96657

>  <VSA>
398.985

>  <TPSA>
73.48

>  <density>
0.766578

>  <vdw_area>
375.367

>  <vdw_vol>
513.213

>  <vsurf_A>
2.61017

>  <vsurf_CP>
0.107885

>  <vsurf_CW1>
2.63949

>  <vsurf_CW2>
2.07952

>  <vsurf_CW3>
1.22964

>  <vsurf_CW4>
0.629263

>  <vsurf_CW5>
0.26108

>  <vsurf_CW6>
0.0755033

>  <vsurf_CW7>
0.00883545

>  <vsurf_CW8>
0

>  <vsurf_D1>
861.125

>  <vsurf_D2>
500.5

>  <vsurf_D3>
370.375

>  <vsurf_D4>
322

>  <vsurf_D5>
284.5

>  <vsurf_D6>
232.375

>  <vsurf_D7>
136.375

>  <vsurf_D8>
68.375

>  <vsurf_DD12>
4.06202

>  <vsurf_DD13>
4.33013

>  <vsurf_DD23>
0.5

>  <vsurf_DW12>
0.707107

>  <vsurf_DW13>
0.707107

>  <vsurf_DW23>
1.22474

>  <vsurf_EDmin1>
-2.65884

>  <vsurf_EDmin2>
-2.59389

>  <vsurf_EDmin3>
-2.5722

>  <vsurf_EWmin1>
-5.55549

>  <vsurf_EWmin2>
-5.42438

>  <vsurf_EWmin3>
-5.39659

>  <vsurf_G>
1.33968

>  <vsurf_HB1>
291

>  <vsurf_HB2>
352.25

>  <vsurf_HB3>
313.75

>  <vsurf_HB4>
126.375

>  <vsurf_HB5>
40.875

>  <vsurf_HB6>
10.625

>  <vsurf_HB7>
1.625

>  <vsurf_HB8>
0

>  <vsurf_HL1>
0.128248

>  <vsurf_HL2>
0.0384317

>  <vsurf_ID1>
0.802936

>  <vsurf_ID2>
0.897942

>  <vsurf_ID3>
0.994276

>  <vsurf_ID4>
1.09827

>  <vsurf_ID5>
1.26797

>  <vsurf_ID6>
1.28913

>  <vsurf_ID7>
1.36422

>  <vsurf_ID8>
2.00128

>  <vsurf_IW1>
0.0583522

>  <vsurf_IW2>
0.617087

>  <vsurf_IW3>
1.23084

>  <vsurf_IW4>
1.76506

>  <vsurf_IW5>
1.676

>  <vsurf_IW6>
2.09872

>  <vsurf_IW7>
3.06784

>  <vsurf_IW8>
0

>  <vsurf_R>
1.45674

>  <vsurf_S>
577.058

>  <vsurf_V>
840.625

>  <vsurf_W1>
1355.88

>  <vsurf_W2>
794.625

>  <vsurf_W3>
393.5

>  <vsurf_W4>
142.625

>  <vsurf_W5>
47.5

>  <vsurf_W6>
12.375

>  <vsurf_W7>
1.625

>  <vsurf_W8>
0

>  <vsurf_Wp1>
1064.88

>  <vsurf_Wp2>
442.375

>  <vsurf_Wp3>
79.75

>  <vsurf_Wp4>
16.25

>  <vsurf_Wp5>
6.625

>  <vsurf_Wp6>
1.75

>  <vsurf_Wp7>
0

>  <vsurf_Wp8>
0

>  <dens>
1.08119

>  <glob>
0.058113

>  <std_dim1>
4.65

>  <std_dim2>
1.40904

>  <std_dim3>
1.12096

>  <vol>
363.875

>  <logP(o/w)>
2.696

$$$$
D9.cdx
  MOE2008           3D

 50 53  0  0  1  0  0  0  0  0999 V2000
   -5.5390  -17.8290   -1.7970 C   0  0  0  0  0  0  0  0  0  0  0  0
   -6.1200  -17.9980   -2.6990 H   0  0  0  0  0  0  0  0  0  0  0  0
   -6.1220  -17.2200   -0.6910 C   0  0  0  0  0  0  0  0  0  0  0  0
   -7.1640  -16.9130   -0.7320 H   0  0  0  0  0  0  0  0  0  0  0  0
   -5.3850  -16.9990    0.4750 C   0  0  0  0  0  0  0  0  0  0  0  0
   -5.8430  -16.5230    1.3370 H   0  0  0  0  0  0  0  0  0  0  0  0
   -4.0450  -17.4100    0.4930 C   0  0  0  0  0  0  0  0  0  0  0  0
   -3.4230  -18.0270   -0.5990 C   0  0  0  0  0  0  0  0  0  0  0  0
   -4.2000  -18.2320   -1.7600 C   0  0  0  0  0  0  0  0  0  0  0  0
   -3.1100  -17.3180    1.4960 N   0  0  0  0  0  0  0  0  0  0  0  0
   -3.2850  -16.9140    2.4070 H   0  0  0  0  0  0  0  0  0  0  0  0
   -1.9190  -17.8490    1.0830 C   0  0  0  0  0  0  0  0  0  0  0  0
   -1.0720  -17.8610    1.7570 H   0  0  0  0  0  0  0  0  0  0  0  0
   -2.0660  -18.3090   -0.2150 C   0  0  0  0  0  0  0  0  0  0  0  0
   -1.0120  -18.9470   -0.9970 C   0  0  0  0  0  0  0  0  0  0  0  0
    0.3450  -19.2110   -0.3680 C   0  0  0  0  0  0  0  0  0  0  0  0
    1.4230  -18.4240   -0.7790 N   0  0  0  0  0  0  0  0  0  0  0  0
    2.7850  -18.6710   -0.2270 C   0  0  3  0  0  0  0  0  0  0  0  0
    2.7130  -18.4120    0.8380 H   0  0  0  0  0  0  0  0  0  0  0  0
    3.8580  -17.7730   -0.8920 C   0  0  0  0  0  0  0  0  0  0  0  0
    4.0380  -18.1020   -1.9230 H   0  0  0  0  0  0  0  0  0  0  0  0
    4.7990  -17.8730   -0.3420 H   0  0  0  0  0  0  0  0  0  0  0  0
    3.4680  -16.3610   -0.9730 N   0  0  0  0  0  0  0  0  0  0  0  0
    2.0580  -16.0800   -1.2360 C   0  0  0  0  0  0  0  0  0  0  0  0
    1.6260  -15.7160   -0.2950 H   0  0  0  0  0  0  0  0  0  0  0  0
    1.9850  -15.2680   -1.9680 H   0  0  0  0  0  0  0  0  0  0  0  0
    1.2890  -17.3080   -1.7250 C   0  0  0  0  0  0  0  0  0  0  0  0
    1.6840  -17.6550   -2.6870 H   0  0  0  0  0  0  0  0  0  0  0  0
    0.2420  -17.0350   -1.8760 H   0  0  0  0  0  0  0  0  0  0  0  0
    4.3240  -15.2720   -0.8080 C   0  0  0  0  0  0  0  0  0  0  0  0
    5.7820  -15.5140   -0.7230 C   0  0  0  0  0  0  0  0  0  0  0  0
   -1.1410  -19.2920   -2.1680 O   0  0  0  0  0  0  0  0  0  0  0  0
    0.4220  -20.1180    0.4580 O   0  0  0  0  0  0  0  0  0  0  0  0
    3.9410  -14.1090   -0.7270 O   0  0  0  0  0  0  0  0  0  0  0  0
   -3.6930  -18.8140   -2.8550 F   0  0  0  0  0  0  0  0  0  0  0  0
    6.4640  -16.1210   -1.7840 C   0  0  0  0  0  0  0  0  0  0  0  0
    5.9330  -16.4300   -2.6800 H   0  0  0  0  0  0  0  0  0  0  0  0
    7.8410  -16.3190   -1.6910 C   0  0  0  0  0  0  0  0  0  0  0  0
    8.3810  -16.7920   -2.5080 H   0  0  0  0  0  0  0  0  0  0  0  0
    8.5310  -15.9010   -0.5510 C   0  0  0  0  0  0  0  0  0  0  0  0
    9.6050  -16.0560   -0.4820 H   0  0  0  0  0  0  0  0  0  0  0  0
    7.8510  -15.2730    0.4940 C   0  0  0  0  0  0  0  0  0  0  0  0
    8.3970  -14.9360    1.3720 H   0  0  0  0  0  0  0  0  0  0  0  0
    6.4740  -15.0710    0.4080 C   0  0  0  0  0  0  0  0  0  0  0  0
    5.9450  -14.5730    1.2160 H   0  0  0  0  0  0  0  0  0  0  0  0
    3.2390  -20.1430   -0.3640 C   0  0  0  0  0  0  0  0  0  0  0  0
    4.3310  -20.2200   -0.3230 H   0  0  0  0  0  0  0  0  0  0  0  0
    2.9060  -20.5810   -1.3110 H   0  0  0  0  0  0  0  0  0  0  0  0
    2.7510  -20.9470    0.7070 O   0  0  0  0  0  0  0  0  0  0  0  0
    1.7730  -20.8080    0.7430 H   0  0  0  0  0  0  0  0  0  0  0  0
  1  2  1  0  0  0  0
  1  3  1  0  0  0  0
  1  9  2  0  0  0  0
  3  4  1  0  0  0  0
  3  5  2  0  0  0  0
  5  6  1  0  0  0  0
  5  7  1  0  0  0  0
  7  8  2  0  0  0  0
  7 10  1  0  0  0  0
  8  9  1  0  0  0  0
  8 14  1  0  0  0  0
  9 35  1  0  0  0  0
 10 11  1  0  0  0  0
 10 12  1  0  0  0  0
 12 13  1  0  0  0  0
 12 14  2  0  0  0  0
 14 15  1  0  0  0  0
 15 16  1  0  0  0  0
 15 32  2  0  0  0  0
 16 17  1  0  0  0  0
 16 33  2  0  0  0  0
 17 18  1  0  0  0  0
 17 27  1  0  0  0  0
 18 19  1  0  0  0  0
 18 20  1  0  0  0  0
 18 46  1  0  0  0  0
 20 21  1  0  0  0  0
 20 22  1  0  0  0  0
 20 23  1  0  0  0  0
 23 24  1  0  0  0  0
 23 30  1  0  0  0  0
 24 25  1  0  0  0  0
 24 26  1  0  0  0  0
 24 27  1  0  0  0  0
 27 28  1  0  0  0  0
 27 29  1  0  0  0  0
 30 31  1  0  0  0  0
 30 34  2  0  0  0  0
 31 36  1  0  0  0  0
 31 44  2  0  0  0  0
 36 37  1  0  0  0  0
 36 38  2  0  0  0  0
 38 39  1  0  0  0  0
 38 40  1  0  0  0  0
 40 41  1  0  0  0  0
 40 42  2  0  0  0  0
 42 43  1  0  0  0  0
 42 44  1  0  0  0  0
 44 45  1  0  0  0  0
 46 47  1  0  0  0  0
 46 48  1  0  0  0  0
 46 49  1  0  0  0  0
 49 50  1  0  0  0  0
M  END
>  <Activity>
6.1938

>  <AM1_dipole>
3.23546

>  <AM1_E>
-126320

>  <AM1_Eele>
-961988

>  <AM1_HF>
-89.9939

>  <AM1_HOMO>
-8.88621

>  <AM1_IP>
8.88621

>  <AM1_LUMO>
-0.66339

>  <diameter>
15

>  <petitjean>
0.466667

>  <petitjeanSC>
0.875

>  <radius>
8

>  <VDistEq>
3.64469

>  <VDistMa>
9.51502

>  <weinerPath>
2539

>  <weinerPol>
52

>  <BCUT_PEOE_0>
-2.74412

>  <BCUT_PEOE_1>
-0.62599

>  <BCUT_PEOE_2>
0.675896

>  <BCUT_PEOE_3>
2.70403

>  <BCUT_SLOGP_0>
-2.90658

>  <BCUT_SLOGP_1>
-0.554092

>  <BCUT_SLOGP_2>
0.740381

>  <BCUT_SLOGP_3>
2.53978

>  <BCUT_SMR_0>
-2.47506

>  <BCUT_SMR_1>
-0.472351

>  <BCUT_SMR_2>
0.830369

>  <BCUT_SMR_3>
2.96204

>  <GCUT_PEOE_0>
-0.859927

>  <GCUT_PEOE_1>
-0.413425

>  <GCUT_PEOE_2>
0.080145

>  <GCUT_PEOE_3>
2.74969

>  <GCUT_SLOGP_0>
-0.98013

>  <GCUT_SLOGP_1>
-0.333837

>  <GCUT_SLOGP_2>
0.156754

>  <GCUT_SLOGP_3>
2.70367

>  <GCUT_SMR_0>
-0.514927

>  <GCUT_SMR_1>
-0.233157

>  <GCUT_SMR_2>
0.196629

>  <GCUT_SMR_3>
3.0087

>  <a_aro>
15

>  <a_count>
50

>  <a_IC>
84.8919

>  <a_ICM>
1.69784

>  <a_nH>
20

>  <b_1rotN>
6

>  <b_1rotR>
0.181818

>  <b_ar>
16

>  <b_count>
53

>  <b_double>
3

>  <b_rotN>
6

>  <b_rotR>
0.181818

>  <b_single>
34

>  <b_triple>
0

>  <chi0v>
16.0463

>  <chi0v_C>
12.6019

>  <chi1v>
9.57023

>  <chi1v_C>
6.25987

>  <chiral>
1

>  <chiral_u>
1

>  <nmol>
1

>  <reactive>
0

>  <rings>
4

>  <Weight>
409.417

>  <a_heavy>
30

>  <a_nB>
0

>  <a_nBr>
0

>  <a_nC>
22

>  <a_nCl>
0

>  <a_nF>
1

>  <a_nI>
0

>  <a_nN>
3

>  <a_nO>
4

>  <a_nP>
0

>  <a_nS>
0

>  <b_heavy>
33

>  <chi0>
21.2503

>  <chi0_C>
14.3885

>  <chi1>
14.5072

>  <chi1_C>
8.35774

>  <FCharge>
0

>  <VAdjEq>
0.378242

>  <VAdjMa>
6.04439

>  <zagreb>
160

>  <balabanJ>
1.37356

>  <PEOE_PC+>
2.83492

>  <PEOE_PC->
-2.83492

>  <PEOE_RPC+>
0.104202

>  <PEOE_RPC->
0.1386

>  <PEOE_VSA+0>
67.4395

>  <PEOE_VSA+1>
97.0827

>  <PEOE_VSA+2>
9.02085

>  <PEOE_VSA+3>
8.61901

>  <PEOE_VSA+4>
10.3242

>  <PEOE_VSA+5>
34.3576

>  <PEOE_VSA+6>
0

>  <PEOE_VSA-0>
49.0196

>  <PEOE_VSA-1>
49.0196

>  <PEOE_VSA-2>
0

>  <PEOE_VSA-3>
0

>  <PEOE_VSA-4>
11.9086

>  <PEOE_VSA-5>
40.7008

>  <PEOE_VSA-6>
7.90443

>  <PEOE_VSA_FHYD>
0.727046

>  <PEOE_VSA_FNEG>
0.411402

>  <PEOE_VSA_FPNEG>
0.157017

>  <PEOE_VSA_FPOL>
0.272954

>  <PEOE_VSA_FPOS>
0.588598

>  <PEOE_VSA_FPPOS>
0.115937

>  <PEOE_VSA_HYD>
280.201

>  <PEOE_VSA_NEG>
158.553

>  <PEOE_VSA_PNEG>
60.5138

>  <PEOE_VSA_POL>
105.196

>  <PEOE_VSA_POS>
226.844

>  <PEOE_VSA_PPOS>
44.6818

>  <PC+>
5.639

>  <PC->
-5.64

>  <Q_PC+>
5.639

>  <Q_PC->
-5.64

>  <Q_RPC+>
0.116333

>  <Q_RPC->
0.120567

>  <Q_VSA_FHYD>
0.542837

>  <Q_VSA_FNEG>
0.477612

>  <Q_VSA_FPNEG>
0.169213

>  <Q_VSA_FPOL>
0.457163

>  <Q_VSA_FPOS>
0.522388

>  <Q_VSA_FPPOS>
0.28795

>  <Q_VSA_HYD>
209.208

>  <Q_VSA_NEG>
184.07

>  <Q_VSA_PNEG>
65.2142

>  <Q_VSA_POL>
176.189

>  <Q_VSA_POS>
201.327

>  <Q_VSA_PPOS>
110.975

>  <RPC+>
0.116333

>  <RPC->
0.120567

>  <lip_acc>
7

>  <lip_don>
2

>  <lip_druglike>
1

>  <lip_violation>
0

>  <opr_brigid>
22

>  <opr_leadlike>
1

>  <opr_nring>
4

>  <opr_nrot>
6

>  <opr_violation>
0

>  <E>
101.97

>  <E_ang>
8.43087

>  <E_ele>
26.3109

>  <E_nb>
79.3083

>  <E_oop>
0.0534907

>  <E_sol>
-18.9321

>  <E_stb>
0.535915

>  <E_str>
7.40037

>  <E_strain>
0.00539633

>  <E_tor>
6.24107

>  <E_vdw>
52.9974

>  <E_rele>
0

>  <E_rnb>
2.84217e-014

>  <E_rsol>
2.84217e-014

>  <E_rvdw>
0

>  <Kier1>
23.168

>  <Kier2>
10.2924

>  <Kier3>
4.8595

>  <KierA1>
16.2147

>  <KierA2>
7.10744

>  <KierA3>
3.32393

>  <KierFlex>
3.8415

>  <logS>
-4.12203

>  <MNDO_dipole>
3.45997

>  <MNDO_E>
-126451

>  <MNDO_Eele>
-951032

>  <MNDO_HF>
-100.554

>  <MNDO_HOMO>
-8.92246

>  <MNDO_IP>
8.92246

>  <MNDO_LUMO>
-0.68746

>  <apol>
59.1209

>  <bpol>
30.5611

>  <mr>
10.9766

>  <dipole>
0.727565

>  <dipoleX>
0.0600395

>  <dipoleY>
0.584412

>  <dipoleZ>
0.429195

>  <pmi>
9020.89

>  <pmiX>
7366.62

>  <pmiY>
1174.76

>  <pmiZ>
479.508

>  <rgyr>
4.69399

>  <a_acc>
4

>  <a_acid>
0

>  <a_base>
0

>  <a_don>
2

>  <a_hyd>
20

>  <vsa_acc>
40.7008

>  <vsa_acid>
0

>  <vsa_base>
0

>  <vsa_don>
5.68258

>  <vsa_hyd>
270.679

>  <vsa_other>
34.3576

>  <vsa_pol>
59.9503

>  <PM3_dipole>
4.4474

>  <PM3_E>
-115659

>  <PM3_Eele>
-941382

>  <PM3_HF>
-118.042

>  <PM3_HOMO>
-8.97505

>  <PM3_IP>
8.97505

>  <PM3_LUMO>
-0.79134

>  <SlogP>
1.8352

>  <SlogP_VSA0>
25.3852

>  <SlogP_VSA1>
22.4538

>  <SlogP_VSA2>
53.7507

>  <SlogP_VSA3>
76.245

>  <SlogP_VSA4>
54.0956

>  <SlogP_VSA5>
0

>  <SlogP_VSA6>
0

>  <SlogP_VSA7>
163.077

>  <SlogP_VSA8>
0

>  <SlogP_VSA9>
14.9601

>  <SMR>
10.752

>  <SMR_VSA0>
71.5866

>  <SMR_VSA1>
46.594

>  <SMR_VSA2>
25.9065

>  <SMR_VSA3>
10.3531

>  <SMR_VSA4>
4.7171

>  <SMR_VSA5>
158.36

>  <SMR_VSA6>
92.4502

>  <SMR_VSA7>
0

>  <ASA>
650.483

>  <ASA+>
258.408

>  <ASA->
276.197

>  <ASA_H>
479.793

>  <ASA_P>
170.69

>  <CASA+>
1457.17

>  <CASA->
1557.75

>  <DASA>
17.7883

>  <DCASA>
100.584

>  <FASA+>
0.397256

>  <FASA->
0.424602

>  <FASA_H>
0.737594

>  <FASA_P>
0.262405

>  <FCASA+>
2.24013

>  <FCASA->
2.39476

>  <VSA>
398.433

>  <TPSA>
93.71

>  <density>
0.784721

>  <vdw_area>
385.397

>  <vdw_vol>
521.736

>  <vsurf_A>
2.5509

>  <vsurf_CP>
0.0810605

>  <vsurf_CW1>
2.66755

>  <vsurf_CW2>
2.15884

>  <vsurf_CW3>
1.38001

>  <vsurf_CW4>
0.75258

>  <vsurf_CW5>
0.335365

>  <vsurf_CW6>
0.118802

>  <vsurf_CW7>
0.0234926

>  <vsurf_CW8>
0

>  <vsurf_D1>
840.625

>  <vsurf_D2>
488.125

>  <vsurf_D3>
363.625

>  <vsurf_D4>
309.25

>  <vsurf_D5>
267

>  <vsurf_D6>
217.375

>  <vsurf_D7>
125.375

>  <vsurf_D8>
67.25

>  <vsurf_DD12>
4.1833

>  <vsurf_DD13>
2.54951

>  <vsurf_DD23>
6.2849

>  <vsurf_DW12>
0.707107

>  <vsurf_DW13>
5.89491

>  <vsurf_DW23>
6.18466

>  <vsurf_EDmin1>
-2.78209

>  <vsurf_EDmin2>
-2.68628

>  <vsurf_EDmin3>
-2.65233

>  <vsurf_EWmin1>
-5.77202

>  <vsurf_EWmin2>
-5.68671

>  <vsurf_EWmin3>
-5.60896

>  <vsurf_G>
1.36147

>  <vsurf_HB1>
361.375

>  <vsurf_HB2>
424.25

>  <vsurf_HB3>
384.125

>  <vsurf_HB4>
168.125

>  <vsurf_HB5>
56.75

>  <vsurf_HB6>
17.375

>  <vsurf_HB7>
3.625

>  <vsurf_HB8>
0

>  <vsurf_HL1>
0.173255

>  <vsurf_HL2>
0.0610348

>  <vsurf_ID1>
0.925524

>  <vsurf_ID2>
0.936839

>  <vsurf_ID3>
1.08398

>  <vsurf_ID4>
1.23171

>  <vsurf_ID5>
1.43894

>  <vsurf_ID6>
1.46828

>  <vsurf_ID7>
0.993702

>  <vsurf_ID8>
0.834406

>  <vsurf_IW1>
0.311001

>  <vsurf_IW2>
0.60829

>  <vsurf_IW3>
0.950451

>  <vsurf_IW4>
1.5198

>  <vsurf_IW5>
1.73812

>  <vsurf_IW6>
2.27783

>  <vsurf_IW7>
3.31178

>  <vsurf_IW8>
0

>  <vsurf_R>
1.44092

>  <vsurf_S>
592.591

>  <vsurf_V>
853.875

>  <vsurf_W1>
1452.5

>  <vsurf_W2>
887.875

>  <vsurf_W3>
473

>  <vsurf_W4>
184.5

>  <vsurf_W5>
63

>  <vsurf_W6>
18.875

>  <vsurf_W7>
3.625

>  <vsurf_W8>
0

>  <vsurf_Wp1>
1091.13

>  <vsurf_Wp2>
463.625

>  <vsurf_Wp3>
88.875

>  <vsurf_Wp4>
16.375

>  <vsurf_Wp5>
6.25

>  <vsurf_Wp6>
1.5

>  <vsurf_Wp7>
0

>  <vsurf_Wp8>
0

>  <dens>
1.10653

>  <glob>
0.0795446

>  <std_dim1>
4.52112

>  <std_dim2>
1.5707

>  <std_dim3>
1.27512

>  <vol>
370

>  <logP(o/w)>
1.661

$$$$
D10.cdx
  MOE2008           3D

 50 53  0  0  0  0  0  0  0  0999 V2000
   -7.5570   17.2710    0.1730 C   0  0  0  0  0  0  0  0  0  0  0  0
   -8.4740   17.8530    0.1160 H   0  0  0  0  0  0  0  0  0  0  0  0
   -7.5310   16.0710    0.8820 C   0  0  0  0  0  0  0  0  0  0  0  0
   -8.4510   15.7620    1.3670 H   0  0  0  0  0  0  0  0  0  0  0  0
   -6.3600   15.2980    0.9690 C   0  0  0  0  0  0  0  0  0  0  0  0
   -5.2230   15.8130    0.3030 C   0  0  0  0  0  0  0  0  0  0  0  0
   -5.2100   17.0130   -0.4140 C   0  0  0  0  0  0  0  0  0  0  0  0
   -6.4130   17.7450   -0.4720 C   0  0  0  0  0  0  0  0  0  0  0  0
   -3.9540   15.2820    0.2180 N   0  0  0  0  0  0  0  0  0  0  0  0
   -3.6930   14.4070    0.6620 H   0  0  0  0  0  0  0  0  0  0  0  0
   -3.1450   16.0920   -0.5280 C   0  0  0  0  0  0  0  0  0  0  0  0
   -2.1120   15.8140   -0.6970 H   0  0  0  0  0  0  0  0  0  0  0  0
   -3.8810   17.1900   -0.9390 C   0  0  0  0  0  0  0  0  0  0  0  0
   -3.3600   18.2920   -1.7420 C   0  0  0  0  0  0  0  0  0  0  0  0
   -1.9280   18.2560   -2.2540 C   0  0  0  0  0  0  0  0  0  0  0  0
   -0.9550   18.8490   -1.4510 N   0  0  0  0  0  0  0  0  0  0  0  0
    0.4450   18.8020   -1.8750 C   0  0  0  0  0  0  0  0  0  0  0  0
    0.6090   17.9500   -2.5430 H   0  0  0  0  0  0  0  0  0  0  0  0
    0.6290   19.7150   -2.4530 H   0  0  0  0  0  0  0  0  0  0  0  0
    1.4040   18.7300   -0.6830 C   0  0  0  0  0  0  0  0  0  0  0  0
    2.4400   18.7470   -1.0370 H   0  0  0  0  0  0  0  0  0  0  0  0
    1.2430   17.7910   -0.1410 H   0  0  0  0  0  0  0  0  0  0  0  0
    1.1900   19.8200    0.2810 N   0  0  0  0  0  0  0  0  0  0  0  0
   -0.1210   20.4740    0.2560 C   0  0  0  0  0  0  0  0  0  0  0  0
   -0.3500   20.8990    1.2390 H   0  0  0  0  0  0  0  0  0  0  0  0
   -0.0390   21.3090   -0.4510 H   0  0  0  0  0  0  0  0  0  0  0  0
   -1.2450   19.5290   -0.1810 C   0  0  0  0  0  0  0  0  0  0  0  0
   -2.1860   20.0800   -0.2620 H   0  0  0  0  0  0  0  0  0  0  0  0
   -1.3830   18.7410    0.5700 H   0  0  0  0  0  0  0  0  0  0  0  0
    2.1450   20.2850    1.1840 C   0  0  0  0  0  0  0  0  0  0  0  0
    3.4300   19.5600    1.2970 C   0  0  0  0  0  0  0  0  0  0  0  0
   -4.0160   19.2870   -2.0340 O   0  0  0  0  0  0  0  0  0  0  0  0
   -1.7210   17.7040   -3.3290 O   0  0  0  0  0  0  0  0  0  0  0  0
    1.9940   21.2750    1.8940 O   0  0  0  0  0  0  0  0  0  0  0  0
   -6.5050   18.9060   -1.1350 F   0  0  0  0  0  0  0  0  0  0  0  0
    3.4620   18.2310    1.7320 C   0  0  0  0  0  0  0  0  0  0  0  0
    2.5450   17.7070    1.9870 H   0  0  0  0  0  0  0  0  0  0  0  0
    4.6890   17.5780    1.8540 C   0  0  0  0  0  0  0  0  0  0  0  0
    4.7260   16.5440    2.1890 H   0  0  0  0  0  0  0  0  0  0  0  0
    5.8740   18.2550    1.5570 C   0  0  0  0  0  0  0  0  0  0  0  0
    6.8290   17.7450    1.6570 H   0  0  0  0  0  0  0  0  0  0  0  0
    5.8380   19.5890    1.1450 C   0  0  0  0  0  0  0  0  0  0  0  0
    6.7640   20.1150    0.9290 H   0  0  0  0  0  0  0  0  0  0  0  0
    4.6150   20.2480    1.0210 C   0  0  0  0  0  0  0  0  0  0  0  0
    4.5880   21.2900    0.7120 H   0  0  0  0  0  0  0  0  0  0  0  0
   -6.2870   14.0090    1.7200 C   0  0  0  0  0  0  0  0  0  0  0  0
   -7.4210   13.5010    2.2950 N   0  0  0  0  0  0  0  0  0  0  0  0
   -7.3350   12.6290    2.8020 H   0  0  0  0  0  0  0  0  0  0  0  0
   -8.3400   13.9160    2.2570 H   0  0  0  0  0  0  0  0  0  0  0  0
   -5.2100   13.4240    1.8060 O   0  0  0  0  0  0  0  0  0  0  0  0
  1  2  1  0  0  0  0
  1  3  1  0  0  0  0
  1  8  2  0  0  0  0
  3  4  1  0  0  0  0
  3  5  2  0  0  0  0
  5  6  1  0  0  0  0
  5 46  1  0  0  0  0
  6  7  2  0  0  0  0
  6  9  1  0  0  0  0
  7  8  1  0  0  0  0
  7 13  1  0  0  0  0
  8 35  1  0  0  0  0
  9 10  1  0  0  0  0
  9 11  1  0  0  0  0
 11 12  1  0  0  0  0
 11 13  2  0  0  0  0
 13 14  1  0  0  0  0
 14 15  1  0  0  0  0
 14 32  2  0  0  0  0
 15 16  1  0  0  0  0
 15 33  2  0  0  0  0
 16 17  1  0  0  0  0
 16 27  1  0  0  0  0
 17 18  1  0  0  0  0
 17 19  1  0  0  0  0
 17 20  1  0  0  0  0
 20 21  1  0  0  0  0
 20 22  1  0  0  0  0
 20 23  1  0  0  0  0
 23 24  1  0  0  0  0
 23 30  1  0  0  0  0
 24 25  1  0  0  0  0
 24 26  1  0  0  0  0
 24 27  1  0  0  0  0
 27 28  1  0  0  0  0
 27 29  1  0  0  0  0
 30 31  1  0  0  0  0
 30 34  2  0  0  0  0
 31 36  1  0  0  0  0
 31 44  2  0  0  0  0
 36 37  1  0  0  0  0
 36 38  2  0  0  0  0
 38 39  1  0  0  0  0
 38 40  1  0  0  0  0
 40 41  1  0  0  0  0
 40 42  2  0  0  0  0
 42 43  1  0  0  0  0
 42 44  1  0  0  0  0
 44 45  1  0  0  0  0
 46 47  1  0  0  0  0
 46 50  2  0  0  0  0
 47 48  1  0  0  0  0
 47 49  1  0  0  0  0
M  END
>  <Activity>
8.6925

>  <AM1_dipole>
4.48454

>  <AM1_E>
-130776

>  <AM1_Eele>
-982211

>  <AM1_HF>
-78.6541

>  <AM1_HOMO>
-9.04973

>  <AM1_IP>
9.04973

>  <AM1_LUMO>
-0.99076

>  <diameter>
16

>  <petitjean>
0.5

>  <petitjeanSC>
1

>  <radius>
8

>  <VDistEq>
3.76609

>  <VDistMa>
9.59108

>  <weinerPath>
2900

>  <weinerPol>
54

>  <BCUT_PEOE_0>
-2.71188

>  <BCUT_PEOE_1>
-0.633961

>  <BCUT_PEOE_2>
0.661535

>  <BCUT_PEOE_3>
2.65031

>  <BCUT_SLOGP_0>
-2.86001

>  <BCUT_SLOGP_1>
-0.529104

>  <BCUT_SLOGP_2>
0.745654

>  <BCUT_SLOGP_3>
2.50334

>  <BCUT_SMR_0>
-2.43203

>  <BCUT_SMR_1>
-0.435685

>  <BCUT_SMR_2>
0.824041

>  <BCUT_SMR_3>
2.92026

>  <GCUT_PEOE_0>
-0.858035

>  <GCUT_PEOE_1>
-0.430638

>  <GCUT_PEOE_2>
0.0770079

>  <GCUT_PEOE_3>
2.6845

>  <GCUT_SLOGP_0>
-1.37036

>  <GCUT_SLOGP_1>
-0.332642

>  <GCUT_SLOGP_2>
0.179803

>  <GCUT_SLOGP_3>
2.65846

>  <GCUT_SMR_0>
-0.508916

>  <GCUT_SMR_1>
-0.215481

>  <GCUT_SMR_2>
0.217442

>  <GCUT_SMR_3>
2.95504

>  <a_aro>
15

>  <a_count>
50

>  <a_IC>
87.3747

>  <a_ICM>
1.74749

>  <a_nH>
19

>  <b_1rotN>
6

>  <b_1rotR>
0.176471

>  <b_ar>
16

>  <b_count>
53

>  <b_double>
4

>  <b_rotN>
6

>  <b_rotR>
0.176471

>  <b_single>
33

>  <b_triple>
0

>  <chi0v>
16.43

>  <chi0v_C>
12.4472

>  <chi1v>
9.655

>  <chi1v_C>
6.11004

>  <chiral>
0

>  <chiral_u>
0

>  <nmol>
1

>  <reactive>
0

>  <rings>
4

>  <Weight>
422.416

>  <a_heavy>
31

>  <a_nB>
0

>  <a_nBr>
0

>  <a_nC>
22

>  <a_nCl>
0

>  <a_nF>
1

>  <a_nI>
0

>  <a_nN>
4

>  <a_nO>
4

>  <a_nP>
0

>  <a_nS>
0

>  <b_heavy>
34

>  <chi0>
22.1206

>  <chi0_C>
14.2588

>  <chi1>
14.8799

>  <chi1_C>
8.20791

>  <FCharge>
0

>  <VAdjEq>
0.368752

>  <VAdjMa>
6.08746

>  <zagreb>
166

>  <balabanJ>
1.32114

>  <PEOE_PC+>
3.02981

>  <PEOE_PC->
-3.02981

>  <PEOE_RPC+>
0.0973991

>  <PEOE_RPC->
0.120735

>  <PEOE_VSA+0>
73.9323

>  <PEOE_VSA+1>
79.3628

>  <PEOE_VSA+2>
9.02085

>  <PEOE_VSA+3>
25.857

>  <PEOE_VSA+4>
0

>  <PEOE_VSA+5>
47.3071

>  <PEOE_VSA+6>
0

>  <PEOE_VSA-0>
49.0196

>  <PEOE_VSA-1>
36.7647

>  <PEOE_VSA-2>
0

>  <PEOE_VSA-3>
0

>  <PEOE_VSA-4>
11.9086

>  <PEOE_VSA-5>
54.2677

>  <PEOE_VSA-6>
6.78801

>  <PEOE_VSA_FHYD>
0.69492

>  <PEOE_VSA_FNEG>
0.402682

>  <PEOE_VSA_FPNEG>
0.185081

>  <PEOE_VSA_FPOL>
0.30508

>  <PEOE_VSA_FPOS>
0.597318

>  <PEOE_VSA_FPPOS>
0.119999

>  <PEOE_VSA_HYD>
273.957

>  <PEOE_VSA_NEG>
158.749

>  <PEOE_VSA_PNEG>
72.9643

>  <PEOE_VSA_POL>
120.271

>  <PEOE_VSA_POS>
235.48

>  <PEOE_VSA_PPOS>
47.3071

>  <PC+>
6.179

>  <PC->
-6.18

>  <Q_PC+>
6.179

>  <Q_PC->
-6.18

>  <Q_RPC+>
0.106166

>  <Q_RPC->
0.12945

>  <Q_VSA_FHYD>
0.483553

>  <Q_VSA_FNEG>
0.467408

>  <Q_VSA_FPNEG>
0.197004

>  <Q_VSA_FPOL>
0.516447

>  <Q_VSA_FPOS>
0.532592

>  <Q_VSA_FPPOS>
0.319443

>  <Q_VSA_HYD>
190.631

>  <Q_VSA_NEG>
184.266

>  <Q_VSA_PNEG>
77.6647

>  <Q_VSA_POL>
203.598

>  <Q_VSA_POS>
209.963

>  <Q_VSA_PPOS>
125.933

>  <RPC+>
0.106166

>  <RPC->
0.12945

>  <lip_acc>
8

>  <lip_don>
2

>  <lip_druglike>
1

>  <lip_violation>
0

>  <opr_brigid>
22

>  <opr_leadlike>
1

>  <opr_nring>
4

>  <opr_nrot>
6

>  <opr_violation>
0

>  <E>
95.4303

>  <E_ang>
10.7107

>  <E_ele>
21.6929

>  <E_nb>
72.0838

>  <E_oop>
0.0405481

>  <E_sol>
-24.9327

>  <E_stb>
0.715783

>  <E_str>
6.93833

>  <E_strain>
0.00425085

>  <E_tor>
4.94116

>  <E_vdw>
50.3909

>  <E_rele>
0

>  <E_rnb>
0

>  <E_rsol>
0

>  <E_rvdw>
0

>  <Kier1>
24.1349

>  <Kier2>
10.5081

>  <Kier3>
5.08651

>  <KierA1>
16.2269

>  <KierA2>
6.96322

>  <KierA3>
3.33482

>  <KierFlex>
3.64488

>  <logS>
-4.57669

>  <MNDO_dipole>
5.5982

>  <MNDO_E>
-130903

>  <MNDO_Eele>
-973161

>  <MNDO_HF>
-95.3866

>  <MNDO_HOMO>
-9.185

>  <MNDO_IP>
9.185

>  <MNDO_LUMO>
-1.01236

>  <apol>
59.5541

>  <bpol>
29.7659

>  <mr>
11.1785

>  <dipole>
1.37398

>  <dipoleX>
-0.174657

>  <dipoleY>
-1.16115

>  <dipoleZ>
0.713472

>  <pmi>
10191.7

>  <pmiX>
7423.04

>  <pmiY>
1850.63

>  <pmiZ>
918.032

>  <rgyr>
4.91194

>  <a_acc>
4

>  <a_acid>
0

>  <a_base>
0

>  <a_don>
2

>  <a_hyd>
19

>  <vsa_acc>
54.2677

>  <vsa_acid>
0

>  <vsa_base>
0

>  <vsa_don>
23.4251

>  <vsa_hyd>
248.62

>  <vsa_other>
47.3071

>  <vsa_pol>
77.6927

>  <PM3_dipole>
4.36322

>  <PM3_E>
-119047

>  <PM3_Eele>
-959538

>  <PM3_HF>
-111.63

>  <PM3_HOMO>
-9.0368

>  <PM3_IP>
9.0368

>  <PM3_LUMO>
-1.0817

>  <SlogP>
1.5732

>  <SlogP_VSA0>
32.8972

>  <SlogP_VSA1>
27.7126

>  <SlogP_VSA2>
49.7688

>  <SlogP_VSA3>
73.7583

>  <SlogP_VSA4>
81.1434

>  <SlogP_VSA5>
0

>  <SlogP_VSA6>
0

>  <SlogP_VSA7>
145.434

>  <SlogP_VSA8>
0

>  <SlogP_VSA9>
14.9601

>  <SMR>
11.0031

>  <SMR_VSA0>
95.4489

>  <SMR_VSA1>
21.2087

>  <SMR_VSA2>
25.9065

>  <SMR_VSA3>
9.55672

>  <SMR_VSA4>
37.6143

>  <SMR_VSA5>
140.717

>  <SMR_VSA6>
95.2223

>  <SMR_VSA7>
0

>  <ASA>
667.649

>  <ASA+>
287.306

>  <ASA->
273.766

>  <ASA_H>
423.376

>  <ASA_P>
244.273

>  <CASA+>
1775.26

>  <CASA->
1691.87

>  <DASA>
13.5397

>  <DCASA>
83.3879

>  <FASA+>
0.430324

>  <FASA->
0.410045

>  <FASA_H>
0.63413

>  <FASA_P>
0.36587

>  <FCASA+>
2.65897

>  <FCASA->
2.53408

>  <VSA>
411.602

>  <TPSA>
116.57

>  <density>
0.798422

>  <vdw_area>
394.229

>  <vdw_vol>
529.064

>  <vsurf_A>
2.9491

>  <vsurf_CP>
0.0759123

>  <vsurf_CW1>
2.71831

>  <vsurf_CW2>
2.32441

>  <vsurf_CW3>
1.65123

>  <vsurf_CW4>
0.803321

>  <vsurf_CW5>
0.378106

>  <vsurf_CW6>
0.141767

>  <vsurf_CW7>
0.0315134

>  <vsurf_CW8>
0.00562482

>  <vsurf_D1>
868.75

>  <vsurf_D2>
517.375

>  <vsurf_D3>
383.25

>  <vsurf_D4>
314.625

>  <vsurf_D5>
265.75

>  <vsurf_D6>
216.375

>  <vsurf_D7>
138.125

>  <vsurf_D8>
83.125

>  <vsurf_DD12>
0.5

>  <vsurf_DD13>
0.5

>  <vsurf_DD23>
0.707107

>  <vsurf_DW12>
0.5

>  <vsurf_DW13>
0.5

>  <vsurf_DW23>
1

>  <vsurf_EDmin1>
-2.74295

>  <vsurf_EDmin2>
-2.70352

>  <vsurf_EDmin3>
-2.68312

>  <vsurf_EWmin1>
-6.84893

>  <vsurf_EWmin2>
-6.48568

>  <vsurf_EWmin3>
-6.48486

>  <vsurf_G>
1.37032

>  <vsurf_HB1>
358.375

>  <vsurf_HB2>
434.625

>  <vsurf_HB3>
386.25

>  <vsurf_HB4>
162.625

>  <vsurf_HB5>
62.625

>  <vsurf_HB6>
21.375

>  <vsurf_HB7>
5.75

>  <vsurf_HB8>
1

>  <vsurf_HL1>
0.198956

>  <vsurf_HL2>
0.0790624

>  <vsurf_ID1>
1.30133

>  <vsurf_ID2>
1.26544

>  <vsurf_ID3>
1.40798

>  <vsurf_ID4>
1.75106

>  <vsurf_ID5>
2.12637

>  <vsurf_ID6>
2.15165

>  <vsurf_ID7>
1.04541

>  <vsurf_ID8>
0.827516

>  <vsurf_IW1>
0.479166

>  <vsurf_IW2>
1.04236

>  <vsurf_IW3>
1.43674

>  <vsurf_IW4>
1.67142

>  <vsurf_IW5>
2.07347

>  <vsurf_IW6>
2.86884

>  <vsurf_IW7>
6.66323

>  <vsurf_IW8>
8.56433

>  <vsurf_R>
1.44098

>  <vsurf_S>
604.277

>  <vsurf_V>
870.75

>  <vsurf_W1>
1562.5

>  <vsurf_W2>
1007

>  <vsurf_W3>
550

>  <vsurf_W4>
199.875

>  <vsurf_W5>
76.25

>  <vsurf_W6>
24.875

>  <vsurf_W7>
6.25

>  <vsurf_W8>
1

>  <vsurf_Wp1>
1204.13

>  <vsurf_Wp2>
572.375

>  <vsurf_Wp3>
163.75

>  <vsurf_Wp4>
37.25

>  <vsurf_Wp5>
13.625

>  <vsurf_Wp6>
3.5

>  <vsurf_Wp7>
0.5

>  <vsurf_Wp8>
0

>  <dens>
1.12195

>  <glob>
0.0577318

>  <std_dim1>
4.69184

>  <std_dim2>
1.8873

>  <std_dim3>
1.12733

>  <vol>
376.5

>  <logP(o/w)>
1.175

$$$$
D10.cdx
  MOE2008           3D

 54 57  0  0  0  0  0  0  0  0999 V2000
   -4.3420   10.8680   -0.6730 C   0  0  0  0  0  0  0  0  0  0  0  0
   -5.1980   11.5190   -0.8300 H   0  0  0  0  0  0  0  0  0  0  0  0
   -4.3340    9.5800   -1.2050 C   0  0  0  0  0  0  0  0  0  0  0  0
   -5.1900    9.2660   -1.7960 H   0  0  0  0  0  0  0  0  0  0  0  0
   -3.2470    8.7140   -1.0060 C   0  0  0  0  0  0  0  0  0  0  0  0
   -2.1440    9.2410   -0.2990 C   0  0  0  0  0  0  0  0  0  0  0  0
   -2.1150   10.5270    0.2500 C   0  0  0  0  0  0  0  0  0  0  0  0
   -3.2500   11.3420    0.0570 C   0  0  0  0  0  0  0  0  0  0  0  0
   -0.9290    8.6560   -0.0170 N   0  0  0  0  0  0  0  0  0  0  0  0
   -0.6740    7.7250   -0.3290 H   0  0  0  0  0  0  0  0  0  0  0  0
   -0.1500    9.5040    0.7180 C   0  0  0  0  0  0  0  0  0  0  0  0
    0.8360    9.1920    1.0370 H   0  0  0  0  0  0  0  0  0  0  0  0
   -0.8460   10.6860    0.9080 C   0  0  0  0  0  0  0  0  0  0  0  0
   -0.3390   11.8440    1.6370 C   0  0  0  0  0  0  0  0  0  0  0  0
    1.0650   11.8230    2.2180 C   0  0  0  0  0  0  0  0  0  0  0  0
    2.0840   12.3510    1.4270 N   0  0  0  0  0  0  0  0  0  0  0  0
    3.4620   12.3060    1.9160 C   0  0  0  0  0  0  0  0  0  0  0  0
    3.6340   13.2450    2.4570 H   0  0  0  0  0  0  0  0  0  0  0  0
    3.5820   11.4870    2.6330 H   0  0  0  0  0  0  0  0  0  0  0  0
    4.4730   12.1610    0.7750 C   0  0  0  0  0  0  0  0  0  0  0  0
    4.3200   11.2000    0.2720 H   0  0  0  0  0  0  0  0  0  0  0  0
    5.4920   12.1800    1.1750 H   0  0  0  0  0  0  0  0  0  0  0  0
    4.3220   13.2070   -0.2480 N   0  0  0  0  0  0  0  0  0  0  0  0
    3.0170   13.8710   -0.3230 C   0  0  0  0  0  0  0  0  0  0  0  0
    3.0730   14.7430    0.3400 H   0  0  0  0  0  0  0  0  0  0  0  0
    2.8420   14.2430   -1.3390 H   0  0  0  0  0  0  0  0  0  0  0  0
    1.8630   12.9600    0.1080 C   0  0  0  0  0  0  0  0  0  0  0  0
    1.7550   12.1330   -0.6030 H   0  0  0  0  0  0  0  0  0  0  0  0
    0.9260   13.5230    0.1100 H   0  0  0  0  0  0  0  0  0  0  0  0
    5.3270   13.6220   -1.1200 C   0  0  0  0  0  0  0  0  0  0  0  0
    6.6050   12.8740   -1.1400 C   0  0  0  0  0  0  0  0  0  0  0  0
   -0.9870   12.8710    1.8150 O   0  0  0  0  0  0  0  0  0  0  0  0
    1.2130   11.3320    3.3320 O   0  0  0  0  0  0  0  0  0  0  0  0
    5.2280   14.5840   -1.8760 O   0  0  0  0  0  0  0  0  0  0  0  0
   -3.3160   12.5900    0.5400 F   0  0  0  0  0  0  0  0  0  0  0  0
    6.6340   11.5250   -1.5090 C   0  0  0  0  0  0  0  0  0  0  0  0
    5.7210   11.0030   -1.7800 H   0  0  0  0  0  0  0  0  0  0  0  0
    7.8540   10.8490   -1.5430 C   0  0  0  0  0  0  0  0  0  0  0  0
    7.8890    9.8000   -1.8260 H   0  0  0  0  0  0  0  0  0  0  0  0
    9.0350   11.5230   -1.2250 C   0  0  0  0  0  0  0  0  0  0  0  0
    9.9850   10.9950   -1.2570 H   0  0  0  0  0  0  0  0  0  0  0  0
    9.0040   12.8760   -0.8810 C   0  0  0  0  0  0  0  0  0  0  0  0
    9.9280   13.3980   -0.6480 H   0  0  0  0  0  0  0  0  0  0  0  0
    7.7880   13.5580   -0.8440 C   0  0  0  0  0  0  0  0  0  0  0  0
    7.7650   14.6140   -0.5870 H   0  0  0  0  0  0  0  0  0  0  0  0
   -3.2070    7.3330   -1.5700 C   0  0  0  0  0  0  0  0  0  0  0  0
   -4.3400    6.5790   -1.6760 N   0  0  0  0  0  0  0  0  0  0  0  0
   -4.3060    5.6700   -2.1220 H   0  0  0  0  0  0  0  0  0  0  0  0
   -2.1080    6.8780   -1.8900 O   0  0  0  0  0  0  0  0  0  0  0  0
   -5.5820    7.0080   -1.1900 O   0  0  0  0  0  0  0  0  0  0  0  0
   -5.9330    6.2010   -0.0700 C   0  0  0  0  0  0  0  0  0  0  0  0
   -6.9000    6.5410    0.3080 H   0  0  0  0  0  0  0  0  0  0  0  0
   -5.1890    6.3060    0.7260 H   0  0  0  0  0  0  0  0  0  0  0  0
   -6.0230    5.1520   -0.3690 H   0  0  0  0  0  0  0  0  0  0  0  0
  1  2  1  0  0  0  0
  1  3  1  0  0  0  0
  1  8  2  0  0  0  0
  3  4  1  0  0  0  0
  3  5  2  0  0  0  0
  5  6  1  0  0  0  0
  5 46  1  0  0  0  0
  6  7  2  0  0  0  0
  6  9  1  0  0  0  0
  7  8  1  0  0  0  0
  7 13  1  0  0  0  0
  8 35  1  0  0  0  0
  9 10  1  0  0  0  0
  9 11  1  0  0  0  0
 11 12  1  0  0  0  0
 11 13  2  0  0  0  0
 13 14  1  0  0  0  0
 14 15  1  0  0  0  0
 14 32  2  0  0  0  0
 15 16  1  0  0  0  0
 15 33  2  0  0  0  0
 16 17  1  0  0  0  0
 16 27  1  0  0  0  0
 17 18  1  0  0  0  0
 17 19  1  0  0  0  0
 17 20  1  0  0  0  0
 20 21  1  0  0  0  0
 20 22  1  0  0  0  0
 20 23  1  0  0  0  0
 23 24  1  0  0  0  0
 23 30  1  0  0  0  0
 24 25  1  0  0  0  0
 24 26  1  0  0  0  0
 24 27  1  0  0  0  0
 27 28  1  0  0  0  0
 27 29  1  0  0  0  0
 30 31  1  0  0  0  0
 30 34  2  0  0  0  0
 31 36  1  0  0  0  0
 31 44  2  0  0  0  0
 36 37  1  0  0  0  0
 36 38  2  0  0  0  0
 38 39  1  0  0  0  0
 38 40  1  0  0  0  0
 40 41  1  0  0  0  0
 40 42  2  0  0  0  0
 42 43  1  0  0  0  0
 42 44  1  0  0  0  0
 44 45  1  0  0  0  0
 46 47  1  0  0  0  0
 46 49  2  0  0  0  0
 47 48  1  0  0  0  0
 47 50  1  0  0  0  0
 50 51  1  0  0  0  0
 51 52  1  0  0  0  0
 51 53  1  0  0  0  0
 51 54  1  0  0  0  0
M  END
>  <Activity>
8.4168

>  <AM1_dipole>
4.96073

>  <AM1_E>
-141706

>  <AM1_Eele>
-1.09337e+006

>  <AM1_HF>
-73.6424

>  <AM1_HOMO>
-9.07194

>  <AM1_IP>
9.07194

>  <AM1_LUMO>
-1.04576

>  <diameter>
18

>  <petitjean>
0.5

>  <petitjeanSC>
1

>  <radius>
9

>  <VDistEq>
3.86305

>  <VDistMa>
9.77266

>  <weinerPath>
3476

>  <weinerPol>
57

>  <BCUT_PEOE_0>
-2.71188

>  <BCUT_PEOE_1>
-0.624518

>  <BCUT_PEOE_2>
0.620747

>  <BCUT_PEOE_3>
2.65031

>  <BCUT_SLOGP_0>
-2.86001

>  <BCUT_SLOGP_1>
-0.519438

>  <BCUT_SLOGP_2>
0.711971

>  <BCUT_SLOGP_3>
2.50335

>  <BCUT_SMR_0>
-2.43203

>  <BCUT_SMR_1>
-0.421255

>  <BCUT_SMR_2>
0.792517

>  <BCUT_SMR_3>
2.92026

>  <GCUT_PEOE_0>
-0.857988

>  <GCUT_PEOE_1>
-0.416997

>  <GCUT_PEOE_2>
0.0742294

>  <GCUT_PEOE_3>
2.69893

>  <GCUT_SLOGP_0>
-1.14687

>  <GCUT_SLOGP_1>
-0.315608

>  <GCUT_SLOGP_2>
0.168165

>  <GCUT_SLOGP_3>
2.6744

>  <GCUT_SMR_0>
-0.508927

>  <GCUT_SMR_1>
-0.214881

>  <GCUT_SMR_2>
0.204797

>  <GCUT_SMR_3>
2.96894

>  <a_aro>
15

>  <a_count>
54

>  <a_IC>
94.8737

>  <a_ICM>
1.75692

>  <a_nH>
21

>  <b_1rotN>
7

>  <b_1rotR>
0.194444

>  <b_ar>
16

>  <b_count>
57

>  <b_double>
4

>  <b_rotN>
8

>  <b_rotR>
0.222222

>  <b_single>
37

>  <b_triple>
0

>  <chi0v>
17.7609

>  <chi0v_C>
13.4472

>  <chi1v>
10.2287

>  <chi1v_C>
6.11004

>  <chiral>
0

>  <chiral_u>
0

>  <nmol>
1

>  <reactive>
0

>  <rings>
4

>  <Weight>
452.442

>  <a_heavy>
33

>  <a_nB>
0

>  <a_nBr>
0

>  <a_nC>
23

>  <a_nCl>
0

>  <a_nF>
1

>  <a_nI>
0

>  <a_nN>
4

>  <a_nO>
5

>  <a_nP>
0

>  <a_nS>
0

>  <b_heavy>
36

>  <chi0>
23.5348

>  <chi0_C>
15.2588

>  <chi1>
15.9179

>  <chi1_C>
8.20791

>  <FCharge>
0

>  <VAdjEq>
0.351258

>  <VAdjMa>
6.16993

>  <zagreb>
174

>  <balabanJ>
1.32213

>  <PEOE_PC+>
3.16677

>  <PEOE_PC->
-3.16677

>  <PEOE_RPC+>
0.0931866

>  <PEOE_RPC->
0.113454

>  <PEOE_VSA+0>
73.9323

>  <PEOE_VSA+1>
117.157

>  <PEOE_VSA+2>
9.02085

>  <PEOE_VSA+3>
17.238

>  <PEOE_VSA+4>
0

>  <PEOE_VSA+5>
47.3071

>  <PEOE_VSA+6>
0

>  <PEOE_VSA-0>
49.0196

>  <PEOE_VSA-1>
36.7647

>  <PEOE_VSA-2>
0

>  <PEOE_VSA-3>
0

>  <PEOE_VSA-4>
17.2482

>  <PEOE_VSA-5>
60.17

>  <PEOE_VSA-6>
0.136891

>  <PEOE_VSA_FHYD>
0.708262

>  <PEOE_VSA_FNEG>
0.381639

>  <PEOE_VSA_FPNEG>
0.181206

>  <PEOE_VSA_FPOL>
0.291738

>  <PEOE_VSA_FPOS>
0.618361

>  <PEOE_VSA_FPPOS>
0.110532

>  <PEOE_VSA_HYD>
303.132

>  <PEOE_VSA_NEG>
163.339

>  <PEOE_VSA_PNEG>
77.5551

>  <PEOE_VSA_POL>
124.862

>  <PEOE_VSA_POS>
264.655

>  <PEOE_VSA_PPOS>
47.3071

>  <PC+>
6.089

>  <PC->
-6.09

>  <Q_PC+>
6.089

>  <Q_PC->
-6.09

>  <Q_RPC+>
0.107735

>  <Q_RPC->
0.108374

>  <Q_VSA_FHYD>
0.475302

>  <Q_VSA_FNEG>
0.44126

>  <Q_VSA_FPNEG>
0.192188

>  <Q_VSA_FPOL>
0.524698

>  <Q_VSA_FPOS>
0.55874

>  <Q_VSA_FPPOS>
0.332509

>  <Q_VSA_HYD>
203.427

>  <Q_VSA_NEG>
188.857

>  <Q_VSA_PNEG>
82.2555

>  <Q_VSA_POL>
224.568

>  <Q_VSA_POS>
239.138

>  <Q_VSA_PPOS>
142.312

>  <RPC+>
0.107735

>  <RPC->
0.108374

>  <lip_acc>
9

>  <lip_don>
2

>  <lip_druglike>
1

>  <lip_violation>
0

>  <opr_brigid>
22

>  <opr_leadlike>
0

>  <opr_nring>
4

>  <opr_nrot>
7

>  <opr_violation>
2

>  <E>
117.668

>  <E_ang>
14.4424

>  <E_ele>
33.8701

>  <E_nb>
86.779

>  <E_oop>
0.103766

>  <E_sol>
-22.0366

>  <E_stb>
0.428402

>  <E_str>
6.85702

>  <E_strain>
0.00553152

>  <E_tor>
9.05749

>  <E_vdw>
52.9089

>  <E_rele>
0

>  <E_rnb>
1.42109e-014

>  <E_rsol>
1.42109e-014

>  <E_rvdw>
0

>  <Kier1>
26.0741

>  <Kier2>
11.8231

>  <Kier3>
5.71315

>  <KierA1>
17.9951

>  <KierA2>
8.05739

>  <KierA3>
3.85774

>  <KierFlex>
4.39375

>  <logS>
-4.72526

>  <MNDO_dipole>
5.89454

>  <MNDO_E>
-141903

>  <MNDO_Eele>
-1.09092e+006

>  <MNDO_HF>
-100.301

>  <MNDO_HOMO>
-9.19046

>  <MNDO_IP>
9.19046

>  <MNDO_LUMO>
-0.99596

>  <apol>
63.4497

>  <bpol>
33.8683

>  <mr>
11.864

>  <dipole>
1.71378

>  <dipoleX>
0.0786178

>  <dipoleY>
-1.70358

>  <dipoleZ>
-0.169381

>  <pmi>
12227.4

>  <pmiX>
8899.16

>  <pmiY>
2509.2

>  <pmiZ>
819.082

>  <rgyr>
5.1986

>  <a_acc>
5

>  <a_acid>
0

>  <a_base>
0

>  <a_don>
2

>  <a_hyd>
20

>  <vsa_acc>
60.17

>  <vsa_acid>
0

>  <vsa_base>
0

>  <vsa_don>
16.5678

>  <vsa_hyd>
284.279

>  <vsa_other>
47.3071

>  <vsa_pol>
76.7379

>  <PM3_dipole>
4.91204

>  <PM3_E>
-129221

>  <PM3_Eele>
-1.07083e+006

>  <PM3_HF>
-109.099

>  <PM3_HOMO>
-9.0825

>  <PM3_IP>
9.0825

>  <PM3_LUMO>
-1.00415

>  <SlogP>
1.7655

>  <SlogP_VSA0>
20.6251

>  <SlogP_VSA1>
27.7126

>  <SlogP_VSA2>
60.9875

>  <SlogP_VSA3>
73.7583

>  <SlogP_VSA4>
81.1434

>  <SlogP_VSA5>
35.3839

>  <SlogP_VSA6>
0

>  <SlogP_VSA7>
145.434

>  <SlogP_VSA8>
0

>  <SlogP_VSA9>
14.9601

>  <SMR>
11.5988

>  <SMR_VSA0>
106.668

>  <SMR_VSA1>
21.2087

>  <SMR_VSA2>
46.5316

>  <SMR_VSA3>
9.55672

>  <SMR_VSA4>
4.7171

>  <SMR_VSA5>
140.717

>  <SMR_VSA6>
95.2223

>  <SMR_VSA7>
35.3839

>  <ASA>
710.941

>  <ASA+>
277.519

>  <ASA->
270.555

>  <ASA_H>
467.279

>  <ASA_P>
243.662

>  <CASA+>
1689.82

>  <CASA->
1647.68

>  <DASA>
6.96415

>  <DCASA>
42.1342

>  <FASA+>
0.390355

>  <FASA->
0.380559

>  <FASA_H>
0.657269

>  <FASA_P>
0.342731

>  <FCASA+>
2.37687

>  <FCASA->
2.31761

>  <VSA>
445.291

>  <TPSA>
111.81

>  <density>
0.801293

>  <vdw_area>
427.994

>  <vdw_vol>
564.64

>  <vsurf_A>
1.57945

>  <vsurf_CP>
0.0757172

>  <vsurf_CW1>
2.62925

>  <vsurf_CW2>
2.08178

>  <vsurf_CW3>
1.38848

>  <vsurf_CW4>
0.726713

>  <vsurf_CW5>
0.346668

>  <vsurf_CW6>
0.125387

>  <vsurf_CW7>
0.0219315

>  <vsurf_CW8>
0.000341463

>  <vsurf_D1>
909.25

>  <vsurf_D2>
549.375

>  <vsurf_D3>
412.125

>  <vsurf_D4>
355.125

>  <vsurf_D5>
305.875

>  <vsurf_D6>
227.375

>  <vsurf_D7>
139.125

>  <vsurf_D8>
80.875

>  <vsurf_DD12>
0.5

>  <vsurf_DD13>
1.11803

>  <vsurf_DD23>
0.707107

>  <vsurf_DW12>
0.5

>  <vsurf_DW13>
1.11803

>  <vsurf_DW23>
1

>  <vsurf_EDmin1>
-2.78187

>  <vsurf_EDmin2>
-2.67879

>  <vsurf_EDmin3>
-2.63872

>  <vsurf_EWmin1>
-6.11878

>  <vsurf_EWmin2>
-5.99756

>  <vsurf_EWmin3>
-5.89578

>  <vsurf_G>
1.40366

>  <vsurf_HB1>
375

>  <vsurf_HB2>
437.25

>  <vsurf_HB3>
391.25

>  <vsurf_HB4>
173.125

>  <vsurf_HB5>
67

>  <vsurf_HB6>
21.25

>  <vsurf_HB7>
4.75

>  <vsurf_HB8>
0.125

>  <vsurf_HL1>
0.182894

>  <vsurf_HL2>
0.0644139

>  <vsurf_ID1>
1.12614

>  <vsurf_ID2>
0.976519

>  <vsurf_ID3>
1.02374

>  <vsurf_ID4>
1.17417

>  <vsurf_ID5>
1.36051

>  <vsurf_ID6>
1.96377

>  <vsurf_ID7>
0.97328

>  <vsurf_ID8>
0.671531

>  <vsurf_IW1>
0.385689

>  <vsurf_IW2>
0.1815

>  <vsurf_IW3>
0.531088

>  <vsurf_IW4>
0.836356

>  <vsurf_IW5>
1.24589

>  <vsurf_IW6>
2.28906

>  <vsurf_IW7>
5.44738

>  <vsurf_IW8>
8.28995

>  <vsurf_R>
1.4431

>  <vsurf_S>
651.377

>  <vsurf_V>
940

>  <vsurf_W1>
1555.25

>  <vsurf_W2>
956.5

>  <vsurf_W3>
516.25

>  <vsurf_W4>
197.875

>  <vsurf_W5>
75.375

>  <vsurf_W6>
22.875

>  <vsurf_W7>
4.75

>  <vsurf_W8>
0.125

>  <vsurf_Wp1>
1180.25

>  <vsurf_Wp2>
519.25

>  <vsurf_Wp3>
125

>  <vsurf_Wp4>
24.75

>  <vsurf_Wp5>
8.375

>  <vsurf_Wp6>
1.625

>  <vsurf_Wp7>
0

>  <vsurf_Wp8>
0

>  <dens>
1.11542

>  <glob>
0.0514753

>  <std_dim1>
5.12336

>  <std_dim2>
1.85106

>  <std_dim3>
1.1624

>  <vol>
405.625

>  <logP(o/w)>
1.673

$$$$
D10.cdx
  MOE2008           3D

 66 71  0  0  0  0  0  0  0  0999 V2000
   -3.6660    6.9080    0.3190 C   0  0  0  0  0  0  0  0  0  0  0  0
   -4.4620    7.6490    0.3110 H   0  0  0  0  0  0  0  0  0  0  0  0
   -3.9460    5.5790    0.0080 C   0  0  0  0  0  0  0  0  0  0  0  0
   -4.9760    5.3100   -0.2000 H   0  0  0  0  0  0  0  0  0  0  0  0
   -2.9360    4.6070   -0.0040 C   0  0  0  0  0  0  0  0  0  0  0  0
   -1.6500    5.0270    0.3970 C   0  0  0  0  0  0  0  0  0  0  0  0
   -1.3310    6.3490    0.7210 C   0  0  0  0  0  0  0  0  0  0  0  0
   -2.3710    7.3010    0.6610 C   0  0  0  0  0  0  0  0  0  0  0  0
   -0.5060    4.2810    0.5740 N   0  0  0  0  0  0  0  0  0  0  0  0
   -0.4660    3.2760    0.4450 H   0  0  0  0  0  0  0  0  0  0  0  0
    0.5320    5.0860    0.9510 C   0  0  0  0  0  0  0  0  0  0  0  0
    1.5110    4.6580    1.1260 H   0  0  0  0  0  0  0  0  0  0  0  0
    0.0660    6.3850    1.0630 C   0  0  0  0  0  0  0  0  0  0  0  0
    0.8760    7.5320    1.4650 C   0  0  0  0  0  0  0  0  0  0  0  0
    2.3120    7.3320    1.9220 C   0  0  0  0  0  0  0  0  0  0  0  0
    3.3220    7.6500    1.0160 N   0  0  0  0  0  0  0  0  0  0  0  0
    4.7250    7.4900    1.4070 C   0  0  0  0  0  0  0  0  0  0  0  0
    4.8090    7.1940    2.4580 H   0  0  0  0  0  0  0  0  0  0  0  0
    5.1350    6.6760    0.7970 H   0  0  0  0  0  0  0  0  0  0  0  0
    5.5160    8.7810    1.1630 C   0  0  0  0  0  0  0  0  0  0  0  0
    6.5720    8.6250    1.3930 H   0  0  0  0  0  0  0  0  0  0  0  0
    5.1530    9.5710    1.8320 H   0  0  0  0  0  0  0  0  0  0  0  0
    5.3130    9.2730   -0.2100 N   0  0  0  0  0  0  0  0  0  0  0  0
    3.9070    9.4360   -0.5980 C   0  0  0  0  0  0  0  0  0  0  0  0
    3.5020   10.2510    0.0140 H   0  0  0  0  0  0  0  0  0  0  0  0
    3.8180    9.7320   -1.6480 H   0  0  0  0  0  0  0  0  0  0  0  0
    3.1110    8.1470   -0.3520 C   0  0  0  0  0  0  0  0  0  0  0  0
    3.4600    7.3580   -1.0280 H   0  0  0  0  0  0  0  0  0  0  0  0
    2.0530    8.3170   -0.5650 H   0  0  0  0  0  0  0  0  0  0  0  0
    6.3130    9.6080   -1.1180 C   0  0  0  0  0  0  0  0  0  0  0  0
    7.7200    9.3720   -0.7390 C   0  0  0  0  0  0  0  0  0  0  0  0
    0.4700    8.6900    1.4590 O   0  0  0  0  0  0  0  0  0  0  0  0
    2.4890    6.9050    3.0580 O   0  0  0  0  0  0  0  0  0  0  0  0
    6.1130   10.0950   -2.2260 O   0  0  0  0  0  0  0  0  0  0  0  0
   -2.1660    8.5920    0.9570 F   0  0  0  0  0  0  0  0  0  0  0  0
    8.2310    8.0700   -0.7290 C   0  0  0  0  0  0  0  0  0  0  0  0
    7.5990    7.2240   -0.9830 H   0  0  0  0  0  0  0  0  0  0  0  0
    9.5700    7.8650   -0.3980 C   0  0  0  0  0  0  0  0  0  0  0  0
    9.9820    6.8590   -0.3860 H   0  0  0  0  0  0  0  0  0  0  0  0
   10.3900    8.9550   -0.0930 C   0  0  0  0  0  0  0  0  0  0  0  0
   11.4340    8.7920    0.1610 H   0  0  0  0  0  0  0  0  0  0  0  0
    9.8760   10.2540   -0.1230 C   0  0  0  0  0  0  0  0  0  0  0  0
   10.5230   11.0980    0.1040 H   0  0  0  0  0  0  0  0  0  0  0  0
    8.5380   10.4680   -0.4520 C   0  0  0  0  0  0  0  0  0  0  0  0
    8.1410   11.4790   -0.4890 H   0  0  0  0  0  0  0  0  0  0  0  0
   -3.2170    3.1820   -0.3110 C   0  0  0  0  0  0  0  0  0  0  0  0
   -3.9790    2.7970   -1.3870 N   0  0  0  0  0  0  0  0  0  0  0  0
   -4.0970    1.7930   -1.4330 H   0  0  0  0  0  0  0  0  0  0  0  0
   -2.6800    2.3280    0.3930 O   0  0  0  0  0  0  0  0  0  0  0  0
   -4.5720    3.5890   -2.4520 C   0  0  0  0  0  0  0  0  0  0  0  0
   -4.0510    4.5440   -2.5520 H   0  0  0  0  0  0  0  0  0  0  0  0
   -4.4310    3.0320   -3.3850 H   0  0  0  0  0  0  0  0  0  0  0  0
   -6.0250    3.7870   -2.1990 C   0  0  0  0  0  0  0  0  0  0  0  0
   -6.6550    4.9430   -2.1180 N   0  0  0  0  0  0  0  0  0  0  0  0
   -7.9710    4.6340   -1.8760 C   0  0  0  0  0  0  0  0  0  0  0  0
   -8.1520    3.2570   -1.8120 C   0  0  0  0  0  0  0  0  0  0  0  0
   -6.9000    2.7410   -2.0240 N   0  0  0  0  0  0  0  0  0  0  0  0
   -6.6620    1.7600   -2.0440 H   0  0  0  0  0  0  0  0  0  0  0  0
   -9.0760    5.4800   -1.6970 C   0  0  0  0  0  0  0  0  0  0  0  0
   -8.9550    6.5570   -1.7450 H   0  0  0  0  0  0  0  0  0  0  0  0
  -10.3300    4.9040   -1.4580 C   0  0  0  0  0  0  0  0  0  0  0  0
  -11.1970    5.5460   -1.3170 H   0  0  0  0  0  0  0  0  0  0  0  0
  -10.4800    3.5160   -1.3980 C   0  0  0  0  0  0  0  0  0  0  0  0
  -11.4640    3.0930   -1.2090 H   0  0  0  0  0  0  0  0  0  0  0  0
   -9.3890    2.6560   -1.5750 C   0  0  0  0  0  0  0  0  0  0  0  0
   -9.5080    1.5790   -1.5280 H   0  0  0  0  0  0  0  0  0  0  0  0
  1  2  1  0  0  0  0
  1  3  1  0  0  0  0
  1  8  2  0  0  0  0
  3  4  1  0  0  0  0
  3  5  2  0  0  0  0
  5  6  1  0  0  0  0
  5 46  1  0  0  0  0
  6  7  2  0  0  0  0
  6  9  1  0  0  0  0
  7  8  1  0  0  0  0
  7 13  1  0  0  0  0
  8 35  1  0  0  0  0
  9 10  1  0  0  0  0
  9 11  1  0  0  0  0
 11 12  1  0  0  0  0
 11 13  2  0  0  0  0
 13 14  1  0  0  0  0
 14 15  1  0  0  0  0
 14 32  2  0  0  0  0
 15 16  1  0  0  0  0
 15 33  2  0  0  0  0
 16 17  1  0  0  0  0
 16 27  1  0  0  0  0
 17 18  1  0  0  0  0
 17 19  1  0  0  0  0
 17 20  1  0  0  0  0
 20 21  1  0  0  0  0
 20 22  1  0  0  0  0
 20 23  1  0  0  0  0
 23 24  1  0  0  0  0
 23 30  1  0  0  0  0
 24 25  1  0  0  0  0
 24 26  1  0  0  0  0
 24 27  1  0  0  0  0
 27 28  1  0  0  0  0
 27 29  1  0  0  0  0
 30 31  1  0  0  0  0
 30 34  2  0  0  0  0
 31 36  1  0  0  0  0
 31 44  2  0  0  0  0
 36 37  1  0  0  0  0
 36 38  2  0  0  0  0
 38 39  1  0  0  0  0
 38 40  1  0  0  0  0
 40 41  1  0  0  0  0
 40 42  2  0  0  0  0
 42 43  1  0  0  0  0
 42 44  1  0  0  0  0
 44 45  1  0  0  0  0
 46 47  1  0  0  0  0
 46 49  2  0  0  0  0
 47 48  1  0  0  0  0
 47 50  1  0  0  0  0
 50 51  1  0  0  0  0
 50 52  1  0  0  0  0
 50 53  1  0  0  0  0
 53 54  2  0  0  0  0
 53 57  1  0  0  0  0
 54 55  1  0  0  0  0
 55 56  1  0  0  0  0
 55 59  2  0  0  0  0
 56 57  1  0  0  0  0
 56 65  2  0  0  0  0
 57 58  1  0  0  0  0
 59 60  1  0  0  0  0
 59 61  1  0  0  0  0
 61 62  1  0  0  0  0
 61 63  2  0  0  0  0
 63 64  1  0  0  0  0
 63 65  1  0  0  0  0
 65 66  1  0  0  0  0
M  END
>  <Activity>
8.1719

>  <AM1_dipole>
5.75901

>  <AM1_E>
-165806

>  <AM1_Eele>
-1.40976e+006

>  <AM1_HF>
-3.90206

>  <AM1_HOMO>
-9.08409

>  <AM1_IP>
9.08409

>  <AM1_LUMO>
-0.97594

>  <diameter>
22

>  <petitjean>
0.5

>  <petitjeanSC>
1

>  <radius>
11

>  <VDistEq>
4.19007

>  <VDistMa>
10.3913

>  <weinerPath>
6627

>  <weinerPol>
70

>  <BCUT_PEOE_0>
-2.71188

>  <BCUT_PEOE_1>
-0.641548

>  <BCUT_PEOE_2>
0.645538

>  <BCUT_PEOE_3>
2.65031

>  <BCUT_SLOGP_0>
-2.86001

>  <BCUT_SLOGP_1>
-0.554617

>  <BCUT_SLOGP_2>
0.75539

>  <BCUT_SLOGP_3>
2.50337

>  <BCUT_SMR_0>
-2.43203

>  <BCUT_SMR_1>
-0.451074

>  <BCUT_SMR_2>
0.813019

>  <BCUT_SMR_3>
2.92027

>  <GCUT_PEOE_0>
-0.85811

>  <GCUT_PEOE_1>
-0.448776

>  <GCUT_PEOE_2>
0.0812664

>  <GCUT_PEOE_3>
2.75175

>  <GCUT_SLOGP_0>
-1.13069

>  <GCUT_SLOGP_1>
-0.350217

>  <GCUT_SLOGP_2>
0.165091

>  <GCUT_SLOGP_3>
2.74942

>  <GCUT_SMR_0>
-0.508925

>  <GCUT_SMR_1>
-0.219701

>  <GCUT_SMR_2>
0.206656

>  <GCUT_SMR_3>
3.02783

>  <a_aro>
24

>  <a_count>
66

>  <a_IC>
112.117

>  <a_ICM>
1.69874

>  <a_nH>
25

>  <b_1rotN>
8

>  <b_1rotR>
0.173913

>  <b_ar>
26

>  <b_count>
71

>  <b_double>
4

>  <b_rotN>
9

>  <b_rotR>
0.195652

>  <b_single>
41

>  <b_triple>
0

>  <chi0v>
21.8163

>  <chi0v_C>
16.9637

>  <chi1v>
13.098

>  <chi1v_C>
8.29095

>  <chiral>
0

>  <chiral_u>
0

>  <nmol>
1

>  <reactive>
0

>  <rings>
6

>  <Weight>
552.566

>  <a_heavy>
41

>  <a_nB>
0

>  <a_nBr>
0

>  <a_nC>
30

>  <a_nCl>
0

>  <a_nF>
1

>  <a_nI>
0

>  <a_nN>
6

>  <a_nO>
4

>  <a_nP>
0

>  <a_nS>
0

>  <b_heavy>
46

>  <chi0>
28.5095

>  <chi0_C>
19.5264

>  <chi1>
19.9019

>  <chi1_C>
11.266

>  <FCharge>
0

>  <VAdjEq>
0.306157

>  <VAdjMa>
6.52356

>  <zagreb>
224

>  <balabanJ>
0.996428

>  <PEOE_PC+>
3.76961

>  <PEOE_PC->
-3.76961

>  <PEOE_RPC+>
0.0782842

>  <PEOE_RPC->
0.0953106

>  <PEOE_VSA+0>
73.9323

>  <PEOE_VSA+1>
131.547

>  <PEOE_VSA+2>
20.2114

>  <PEOE_VSA+3>
25.857

>  <PEOE_VSA+4>
0

>  <PEOE_VSA+5>
47.3071

>  <PEOE_VSA+6>
0

>  <PEOE_VSA-0>
73.5294

>  <PEOE_VSA-1>
61.2745

>  <PEOE_VSA-2>
0

>  <PEOE_VSA-3>
0

>  <PEOE_VSA-4>
17.5912

>  <PEOE_VSA-5>
54.2677

>  <PEOE_VSA-6>
0.410673

>  <PEOE_VSA_FHYD>
0.763649

>  <PEOE_VSA_FNEG>
0.409294

>  <PEOE_VSA_FPNEG>
0.142846

>  <PEOE_VSA_FPOL>
0.236351

>  <PEOE_VSA_FPOS>
0.590706

>  <PEOE_VSA_FPPOS>
0.0935056

>  <PEOE_VSA_HYD>
386.351

>  <PEOE_VSA_NEG>
207.074

>  <PEOE_VSA_PNEG>
72.2696

>  <PEOE_VSA_POL>
119.577

>  <PEOE_VSA_POS>
298.854

>  <PEOE_VSA_PPOS>
47.3071

>  <PC+>
7.426

>  <PC->
-7.427

>  <Q_PC+>
7.426

>  <Q_PC->
-7.427

>  <Q_RPC+>
0.0883383

>  <Q_RPC->
0.09829

>  <Q_VSA_FHYD>
0.559901

>  <Q_VSA_FNEG>
0.472702

>  <Q_VSA_FPNEG>
0.151866

>  <Q_VSA_FPOL>
0.440099

>  <Q_VSA_FPOS>
0.527298

>  <Q_VSA_FPPOS>
0.288233

>  <Q_VSA_HYD>
283.27

>  <Q_VSA_NEG>
239.153

>  <Q_VSA_PNEG>
76.8331

>  <Q_VSA_POL>
222.658

>  <Q_VSA_POS>
266.775

>  <Q_VSA_PPOS>
145.825

>  <RPC+>
0.0883383

>  <RPC->
0.09829

>  <lip_acc>
10

>  <lip_don>
3

>  <lip_druglike>
1

>  <lip_violation>
1

>  <opr_brigid>
32

>  <opr_leadlike>
0

>  <opr_nring>
6

>  <opr_nrot>
8

>  <opr_violation>
3

>  <E>
118.631

>  <E_ang>
16.8977

>  <E_ele>
23.9292

>  <E_nb>
86.3357

>  <E_oop>
0.242651

>  <E_sol>
-45.9251

>  <E_stb>
0.0709178

>  <E_str>
8.29021

>  <E_strain>
0.00728752

>  <E_tor>
6.79334

>  <E_vdw>
62.4065

>  <E_rele>
0

>  <E_rnb>
-7.10543e-015

>  <E_rsol>
-7.10543e-015

>  <E_rvdw>
0

>  <Kier1>
31.0019

>  <Kier2>
13.9669

>  <Kier3>
6.8242

>  <KierA1>
20.8256

>  <KierA2>
9.28118

>  <KierA3>
4.49965

>  <KierFlex>
4.71429

>  <logS>
-6.49012

>  <MNDO_dipole>
6.69863

>  <MNDO_E>
-165978

>  <MNDO_Eele>
-1.39793e+006

>  <MNDO_HF>
-43.8895

>  <MNDO_HOMO>
-9.10421

>  <MNDO_IP>
9.10421

>  <MNDO_LUMO>
-0.98111

>  <apol>
79.8348

>  <bpol>
39.6252

>  <mr>
15.056

>  <dipole>
1.96362

>  <dipoleX>
0.0167051

>  <dipoleY>
-1.84647

>  <dipoleZ>
-0.667877

>  <pmi>
23542.3

>  <pmiX>
19215.7

>  <pmiY>
3336.94

>  <pmiZ>
989.686

>  <rgyr>
6.52728

>  <a_acc>
6

>  <a_acid>
0

>  <a_base>
0

>  <a_don>
4

>  <a_hyd>
26

>  <vsa_acc>
54.2677

>  <vsa_acid>
0

>  <vsa_base>
0

>  <vsa_don>
11.3652

>  <vsa_hyd>
345.553

>  <vsa_other>
58.4977

>  <vsa_pol>
76.998

>  <PM3_dipole>
6.70042

>  <PM3_E>
-150503

>  <PM3_Eele>
-1.38887e+006

>  <PM3_HF>
-60.9936

>  <PM3_HOMO>
-9.01474

>  <PM3_IP>
9.01474

>  <PM3_LUMO>
-0.94598

>  <SlogP>
3.547

>  <SlogP_VSA0>
18.0107

>  <SlogP_VSA1>
44.4981

>  <SlogP_VSA2>
66.5543

>  <SlogP_VSA3>
73.7583

>  <SlogP_VSA4>
83.4713

>  <SlogP_VSA5>
0

>  <SlogP_VSA6>
0

>  <SlogP_VSA7>
220.295

>  <SlogP_VSA8>
0

>  <SlogP_VSA9>
33.3997

>  <SMR>
14.8982

>  <SMR_VSA0>
95.4489

>  <SMR_VSA1>
37.9943

>  <SMR_VSA2>
60.7028

>  <SMR_VSA3>
11.8846

>  <SMR_VSA4>
9.00537

>  <SMR_VSA5>
229.729

>  <SMR_VSA6>
95.2223

>  <SMR_VSA7>
0

>  <ASA>
854.578

>  <ASA+>
367.197

>  <ASA->
351.418

>  <ASA_H>
609.695

>  <ASA_P>
244.884

>  <CASA+>
2726.8

>  <CASA->
2609.98

>  <DASA>
15.7784

>  <DCASA>
116.819

>  <FASA+>
0.429682

>  <FASA->
0.411218

>  <FASA_H>
0.713445

>  <FASA_P>
0.286555

>  <FCASA+>
3.19082

>  <FCASA->
3.05412

>  <VSA>
543.215

>  <TPSA>
131.26

>  <density>
0.782279

>  <vdw_area>
505.928

>  <vdw_vol>
706.354

>  <vsurf_A>
1.63601

>  <vsurf_CP>
0.0615126

>  <vsurf_CW1>
2.60461

>  <vsurf_CW2>
2.12702

>  <vsurf_CW3>
1.41427

>  <vsurf_CW4>
0.721592

>  <vsurf_CW5>
0.361452

>  <vsurf_CW6>
0.15559

>  <vsurf_CW7>
0.0465348

>  <vsurf_CW8>
0.0166066

>  <vsurf_D1>
1163.63

>  <vsurf_D2>
692.75

>  <vsurf_D3>
512.5

>  <vsurf_D4>
434.5

>  <vsurf_D5>
374.5

>  <vsurf_D6>
306

>  <vsurf_D7>
186.875

>  <vsurf_D8>
109.125

>  <vsurf_DD12>
0.5

>  <vsurf_DD13>
0.5

>  <vsurf_DD23>
1

>  <vsurf_DW12>
0.5

>  <vsurf_DW13>
0.5

>  <vsurf_DW23>
1

>  <vsurf_EDmin1>
-3.14039

>  <vsurf_EDmin2>
-3.11806

>  <vsurf_EDmin3>
-2.94135

>  <vsurf_EWmin1>
-7.3226

>  <vsurf_EWmin2>
-7.30203

>  <vsurf_EWmin3>
-6.9739

>  <vsurf_G>
1.46519

>  <vsurf_HB1>
396

>  <vsurf_HB2>
465.375

>  <vsurf_HB3>
451.375

>  <vsurf_HB4>
197

>  <vsurf_HB5>
77

>  <vsurf_HB6>
24.5

>  <vsurf_HB7>
5.625

>  <vsurf_HB8>
1.5

>  <vsurf_HL1>
0.193171

>  <vsurf_HL2>
0.0828539

>  <vsurf_ID1>
0.503848

>  <vsurf_ID2>
0.551042

>  <vsurf_ID3>
0.516527

>  <vsurf_ID4>
0.493445

>  <vsurf_ID5>
0.507809

>  <vsurf_ID6>
0.589405

>  <vsurf_ID7>
0.9698

>  <vsurf_ID8>
1.43042

>  <vsurf_IW1>
0.194332

>  <vsurf_IW2>
0.189723

>  <vsurf_IW3>
0.424099

>  <vsurf_IW4>
0.904241

>  <vsurf_IW5>
1.69686

>  <vsurf_IW6>
3.05409

>  <vsurf_IW7>
6.02447

>  <vsurf_IW8>
7.87694

>  <vsurf_R>
1.47813

>  <vsurf_S>
777.251

>  <vsurf_V>
1148.88

>  <vsurf_W1>
1896.88

>  <vsurf_W2>
1164.88

>  <vsurf_W3>
625.375

>  <vsurf_W4>
243.75

>  <vsurf_W5>
99

>  <vsurf_W6>
36

>  <vsurf_W7>
10.375

>  <vsurf_W8>
3.375

>  <vsurf_Wp1>
1500.88

>  <vsurf_Wp2>
699.5

>  <vsurf_Wp3>
174

>  <vsurf_Wp4>
46.75

>  <vsurf_Wp5>
22

>  <vsurf_Wp6>
11.5

>  <vsurf_Wp7>
4.75

>  <vsurf_Wp8>
1.875

>  <dens>
1.09827

>  <glob>
0.0315141

>  <std_dim1>
6.70245

>  <std_dim2>
1.56271

>  <std_dim3>
1.18983

>  <vol>
503.125

>  <logP(o/w)>
2.735

$$$$
D10.cdx
  MOE2008           3D

 63 67  0  0  0  0  0  0  0  0999 V2000
   -3.5730    2.0660   -1.6900 C   0  0  0  0  0  0  0  0  0  0  0  0
   -4.4840    2.5350   -2.0530 H   0  0  0  0  0  0  0  0  0  0  0  0
   -3.6370    0.8770   -0.9660 C   0  0  0  0  0  0  0  0  0  0  0  0
   -4.6100    0.4200   -0.8110 H   0  0  0  0  0  0  0  0  0  0  0  0
   -2.4750    0.2610   -0.4800 C   0  0  0  0  0  0  0  0  0  0  0  0
   -1.2440    0.8520   -0.8370 C   0  0  0  0  0  0  0  0  0  0  0  0
   -1.1400    2.0420   -1.5650 C   0  0  0  0  0  0  0  0  0  0  0  0
   -2.3410    2.6560   -1.9800 C   0  0  0  0  0  0  0  0  0  0  0  0
    0.0400    0.4170   -0.5910 N   0  0  0  0  0  0  0  0  0  0  0  0
    0.2580   -0.4460   -0.1050 H   0  0  0  0  0  0  0  0  0  0  0  0
    0.9490    1.3030   -1.1020 C   0  0  0  0  0  0  0  0  0  0  0  0
    2.0090    1.1130   -0.9890 H   0  0  0  0  0  0  0  0  0  0  0  0
    0.2610    2.3330   -1.7190 C   0  0  0  0  0  0  0  0  0  0  0  0
    0.8840    3.4730   -2.3860 C   0  0  0  0  0  0  0  0  0  0  0  0
    2.3850    3.4870   -2.6230 C   0  0  0  0  0  0  0  0  0  0  0  0
    3.1700    4.1630   -1.6940 N   0  0  0  0  0  0  0  0  0  0  0  0
    4.6230    4.1980   -1.8580 C   0  0  0  0  0  0  0  0  0  0  0  0
    4.9380    3.5960   -2.7160 H   0  0  0  0  0  0  0  0  0  0  0  0
    4.8940    5.2400   -2.0650 H   0  0  0  0  0  0  0  0  0  0  0  0
    5.3380    3.7130   -0.5890 C   0  0  0  0  0  0  0  0  0  0  0  0
    6.4120    3.8670   -0.7130 H   0  0  0  0  0  0  0  0  0  0  0  0
    5.1600    2.6410   -0.4430 H   0  0  0  0  0  0  0  0  0  0  0  0
    4.8270    4.3950    0.6130 N   0  0  0  0  0  0  0  0  0  0  0  0
    3.3660    4.3930    0.7570 C   0  0  0  0  0  0  0  0  0  0  0  0
    3.0760    3.3560    0.9650 H   0  0  0  0  0  0  0  0  0  0  0  0
    3.0510    4.9990    1.6120 H   0  0  0  0  0  0  0  0  0  0  0  0
    2.6670    4.8820   -0.5160 C   0  0  0  0  0  0  0  0  0  0  0  0
    2.8810    5.9450   -0.6790 H   0  0  0  0  0  0  0  0  0  0  0  0
    1.5850    4.7750   -0.4080 H   0  0  0  0  0  0  0  0  0  0  0  0
    5.6010    5.0160    1.5890 C   0  0  0  0  0  0  0  0  0  0  0  0
    7.0690    4.8270    1.5640 C   0  0  0  0  0  0  0  0  0  0  0  0
    0.2630    4.4600   -2.7690 O   0  0  0  0  0  0  0  0  0  0  0  0
    2.8060    2.8920   -3.6090 O   0  0  0  0  0  0  0  0  0  0  0  0
    5.1460    5.7130    2.4910 O   0  0  0  0  0  0  0  0  0  0  0  0
   -2.3440    3.7940   -2.6880 F   0  0  0  0  0  0  0  0  0  0  0  0
    7.6180    3.5470    1.6970 C   0  0  0  0  0  0  0  0  0  0  0  0
    6.9750    2.6770    1.8030 H   0  0  0  0  0  0  0  0  0  0  0  0
    9.0030    3.3910    1.7000 C   0  0  0  0  0  0  0  0  0  0  0  0
    9.4400    2.4000    1.7960 H   0  0  0  0  0  0  0  0  0  0  0  0
    9.8320    4.5100    1.5890 C   0  0  0  0  0  0  0  0  0  0  0  0
   10.9120    4.3860    1.5950 H   0  0  0  0  0  0  0  0  0  0  0  0
    9.2800    5.7880    1.4810 C   0  0  0  0  0  0  0  0  0  0  0  0
    9.9300    6.6560    1.4090 H   0  0  0  0  0  0  0  0  0  0  0  0
    7.8950    5.9520    1.4760 C   0  0  0  0  0  0  0  0  0  0  0  0
    7.4630    6.9470    1.4040 H   0  0  0  0  0  0  0  0  0  0  0  0
   -2.5300   -1.0170    0.2740 C   0  0  0  0  0  0  0  0  0  0  0  0
   -3.4120   -1.2130    1.3070 N   0  0  0  0  0  0  0  0  0  0  0  0
   -3.3760   -2.1530    1.6830 H   0  0  0  0  0  0  0  0  0  0  0  0
   -1.7140   -1.8900   -0.0170 O   0  0  0  0  0  0  0  0  0  0  0  0
   -4.3330   -0.2910    1.9550 C   0  0  0  0  0  0  0  0  0  0  0  0
   -4.2850   -0.5030    3.0290 H   0  0  0  0  0  0  0  0  0  0  0  0
   -3.9730    0.7320    1.8040 H   0  0  0  0  0  0  0  0  0  0  0  0
   -5.7670   -0.4310    1.5070 C   0  0  0  0  0  0  0  0  0  0  0  0
   -6.6060    0.6950    1.5330 C   0  0  0  0  0  0  0  0  0  0  0  0
   -6.2210    1.6620    1.8490 H   0  0  0  0  0  0  0  0  0  0  0  0
   -7.9460    0.5970    1.1520 C   0  0  0  0  0  0  0  0  0  0  0  0
   -8.5830    1.4780    1.1710 H   0  0  0  0  0  0  0  0  0  0  0  0
   -8.4690   -0.6300    0.7530 C   0  0  0  0  0  0  0  0  0  0  0  0
   -9.5120   -0.7070    0.4570 H   0  0  0  0  0  0  0  0  0  0  0  0
   -7.6560   -1.7610    0.7410 C   0  0  0  0  0  0  0  0  0  0  0  0
   -8.0660   -2.7210    0.4380 H   0  0  0  0  0  0  0  0  0  0  0  0
   -6.3140   -1.6640    1.1220 C   0  0  0  0  0  0  0  0  0  0  0  0
   -5.7060   -2.5650    1.1110 H   0  0  0  0  0  0  0  0  0  0  0  0
  1  2  1  0  0  0  0
  1  3  1  0  0  0  0
  1  8  2  0  0  0  0
  3  4  1  0  0  0  0
  3  5  2  0  0  0  0
  5  6  1  0  0  0  0
  5 46  1  0  0  0  0
  6  7  2  0  0  0  0
  6  9  1  0  0  0  0
  7  8  1  0  0  0  0
  7 13  1  0  0  0  0
  8 35  1  0  0  0  0
  9 10  1  0  0  0  0
  9 11  1  0  0  0  0
 11 12  1  0  0  0  0
 11 13  2  0  0  0  0
 13 14  1  0  0  0  0
 14 15  1  0  0  0  0
 14 32  2  0  0  0  0
 15 16  1  0  0  0  0
 15 33  2  0  0  0  0
 16 17  1  0  0  0  0
 16 27  1  0  0  0  0
 17 18  1  0  0  0  0
 17 19  1  0  0  0  0
 17 20  1  0  0  0  0
 20 21  1  0  0  0  0
 20 22  1  0  0  0  0
 20 23  1  0  0  0  0
 23 24  1  0  0  0  0
 23 30  1  0  0  0  0
 24 25  1  0  0  0  0
 24 26  1  0  0  0  0
 24 27  1  0  0  0  0
 27 28  1  0  0  0  0
 27 29  1  0  0  0  0
 30 31  1  0  0  0  0
 30 34  2  0  0  0  0
 31 36  1  0  0  0  0
 31 44  2  0  0  0  0
 36 37  1  0  0  0  0
 36 38  2  0  0  0  0
 38 39  1  0  0  0  0
 38 40  1  0  0  0  0
 40 41  1  0  0  0  0
 40 42  2  0  0  0  0
 42 43  1  0  0  0  0
 42 44  1  0  0  0  0
 44 45  1  0  0  0  0
 46 47  1  0  0  0  0
 46 49  2  0  0  0  0
 47 48  1  0  0  0  0
 47 50  1  0  0  0  0
 50 51  1  0  0  0  0
 50 52  1  0  0  0  0
 50 53  1  0  0  0  0
 53 54  1  0  0  0  0
 53 62  2  0  0  0  0
 54 55  1  0  0  0  0
 54 56  2  0  0  0  0
 56 57  1  0  0  0  0
 56 58  1  0  0  0  0
 58 59  1  0  0  0  0
 58 60  2  0  0  0  0
 60 61  1  0  0  0  0
 60 62  1  0  0  0  0
 62 63  1  0  0  0  0
M  END
>  <Activity>
6.9621

>  <AM1_dipole>
4.60163

>  <AM1_E>
-153332

>  <AM1_Eele>
-1.29044e+006

>  <AM1_HF>
-47.6402

>  <AM1_HOMO>
-9.02296

>  <AM1_IP>
9.02296

>  <AM1_LUMO>
-0.8902

>  <diameter>
21

>  <petitjean>
0.47619

>  <petitjeanSC>
0.909091

>  <radius>
11

>  <VDistEq>
4.08706

>  <VDistMa>
10.1756

>  <weinerPath>
5311

>  <weinerPol>
64

>  <BCUT_PEOE_0>
-2.71188

>  <BCUT_PEOE_1>
-0.641758

>  <BCUT_PEOE_2>
0.647032

>  <BCUT_PEOE_3>
2.65031

>  <BCUT_SLOGP_0>
-2.86001

>  <BCUT_SLOGP_1>
-0.53808

>  <BCUT_SLOGP_2>
0.769557

>  <BCUT_SLOGP_3>
2.50339

>  <BCUT_SMR_0>
-2.43203

>  <BCUT_SMR_1>
-0.451707

>  <BCUT_SMR_2>
0.814777

>  <BCUT_SMR_3>
2.92027

>  <GCUT_PEOE_0>
-0.85829

>  <GCUT_PEOE_1>
-0.417111

>  <GCUT_PEOE_2>
0.0796386

>  <GCUT_PEOE_3>
2.74115

>  <GCUT_SLOGP_0>
-1.13069

>  <GCUT_SLOGP_1>
-0.313992

>  <GCUT_SLOGP_2>
0.164516

>  <GCUT_SLOGP_3>
2.73901

>  <GCUT_SMR_0>
-0.508923

>  <GCUT_SMR_1>
-0.216057

>  <GCUT_SMR_2>
0.193051

>  <GCUT_SMR_3>
3.01602

>  <a_aro>
21

>  <a_count>
63

>  <a_IC>
103.591

>  <a_ICM>
1.6443

>  <a_nH>
25

>  <b_1rotN>
8

>  <b_1rotR>
0.190476

>  <b_ar>
22

>  <b_count>
67

>  <b_double>
4

>  <b_rotN>
9

>  <b_rotR>
0.214286

>  <b_single>
41

>  <b_triple>
0

>  <chi0v>
20.4465

>  <chi0v_C>
16.5411

>  <chi1v>
12.2341

>  <chi1v_C>
8.37428

>  <chiral>
0

>  <chiral_u>
0

>  <nmol>
1

>  <reactive>
0

>  <rings>
5

>  <Weight>
512.541

>  <a_heavy>
38

>  <a_nB>
0

>  <a_nBr>
0

>  <a_nC>
29

>  <a_nCl>
0

>  <a_nF>
1

>  <a_nI>
0

>  <a_nN>
4

>  <a_nO>
4

>  <a_nP>
0

>  <a_nS>
0

>  <b_heavy>
42

>  <chi0>
26.6477

>  <chi0_C>
19.0788

>  <chi1>
18.4356

>  <chi1_C>
11.4327

>  <FCharge>
0

>  <VAdjEq>
0.320144

>  <VAdjMa>
6.39232

>  <zagreb>
202

>  <balabanJ>
1.12742

>  <PEOE_PC+>
3.3384

>  <PEOE_PC->
-3.3384

>  <PEOE_RPC+>
0.0883959

>  <PEOE_RPC->
0.107622

>  <PEOE_VSA+0>
87.1246

>  <PEOE_VSA+1>
109.221

>  <PEOE_VSA+2>
9.02085

>  <PEOE_VSA+3>
17.238

>  <PEOE_VSA+4>
0

>  <PEOE_VSA+5>
47.3071

>  <PEOE_VSA+6>
0

>  <PEOE_VSA-0>
51.2282

>  <PEOE_VSA-1>
98.0392

>  <PEOE_VSA-2>
0

>  <PEOE_VSA-3>
0

>  <PEOE_VSA-4>
11.9086

>  <PEOE_VSA-5>
54.2677

>  <PEOE_VSA-6>
0.273782

>  <PEOE_VSA_FHYD>
0.765753

>  <PEOE_VSA_FNEG>
0.444203

>  <PEOE_VSA_FPNEG>
0.136833

>  <PEOE_VSA_FPOL>
0.234247

>  <PEOE_VSA_FPOS>
0.555797

>  <PEOE_VSA_FPPOS>
0.0974142

>  <PEOE_VSA_HYD>
371.871

>  <PEOE_VSA_NEG>
215.717

>  <PEOE_VSA_PNEG>
66.4501

>  <PEOE_VSA_POL>
113.757

>  <PEOE_VSA_POS>
269.911

>  <PEOE_VSA_PPOS>
47.3071

>  <PC+>
7.003

>  <PC->
-7.004

>  <Q_PC+>
7.003

>  <Q_PC->
-7.004

>  <Q_RPC+>
0.0936741

>  <Q_RPC->
0.104226

>  <Q_VSA_FHYD>
0.58475

>  <Q_VSA_FNEG>
0.496747

>  <Q_VSA_FPNEG>
0.146512

>  <Q_VSA_FPOL>
0.41525

>  <Q_VSA_FPOS>
0.503253

>  <Q_VSA_FPPOS>
0.268738

>  <Q_VSA_HYD>
283.971

>  <Q_VSA_NEG>
241.235

>  <Q_VSA_PNEG>
71.1505

>  <Q_VSA_POL>
201.657

>  <Q_VSA_POS>
244.394

>  <Q_VSA_PPOS>
130.507

>  <RPC+>
0.0936741

>  <RPC->
0.104226

>  <lip_acc>
8

>  <lip_don>
2

>  <lip_druglike>
1

>  <lip_violation>
1

>  <opr_brigid>
28

>  <opr_leadlike>
0

>  <opr_nring>
5

>  <opr_nrot>
8

>  <opr_violation>
2

>  <E>
120.013

>  <E_ang>
15.6317

>  <E_ele>
24.1991

>  <E_nb>
88.8489

>  <E_oop>
0.205794

>  <E_sol>
-28.7154

>  <E_stb>
0.594784

>  <E_str>
8.34665

>  <E_strain>
0.00634707

>  <E_tor>
6.38546

>  <E_vdw>
64.6498

>  <E_rele>
0

>  <E_rnb>
0

>  <E_rsol>
0

>  <E_rvdw>
0

>  <Kier1>
29.4909

>  <Kier2>
13.7754

>  <Kier3>
6.91358

>  <KierA1>
19.9881

>  <KierA2>
9.23018

>  <KierA3>
4.59543

>  <KierFlex>
4.85509

>  <logS>
-6.2386

>  <MNDO_dipole>
4.92493

>  <MNDO_E>
-153482

>  <MNDO_Eele>
-1.27542e+006

>  <MNDO_HF>
-65.9971

>  <MNDO_HOMO>
-9.12397

>  <MNDO_IP>
9.12397

>  <MNDO_LUMO>
-0.94706

>  <apol>
75.8748

>  <bpol>
37.6452

>  <mr>
14.1956

>  <dipole>
1.17477

>  <dipoleX>
0.0811827

>  <dipoleY>
-0.659608

>  <dipoleZ>
0.968722

>  <pmi>
17447.8

>  <pmiX>
13131.4

>  <pmiY>
2879.87

>  <pmiZ>
1436.6

>  <rgyr>
5.83454

>  <a_acc>
4

>  <a_acid>
0

>  <a_base>
0

>  <a_don>
2

>  <a_hyd>
26

>  <vsa_acc>
54.2677

>  <vsa_acid>
0

>  <vsa_base>
0

>  <vsa_don>
11.3652

>  <vsa_hyd>
350.171

>  <vsa_other>
47.3071

>  <vsa_pol>
65.6328

>  <PM3_dipole>
4.73206

>  <PM3_E>
-140296

>  <PM3_Eele>
-1.27912e+006

>  <PM3_HF>
-87.5133

>  <PM3_HOMO>
-9.06755

>  <PM3_IP>
9.06755

>  <PM3_LUMO>
-0.97392

>  <SlogP>
3.6707

>  <SlogP_VSA0>
18.0107

>  <SlogP_VSA1>
27.7126

>  <SlogP_VSA2>
49.7688

>  <SlogP_VSA3>
73.7583

>  <SlogP_VSA4>
84.3289

>  <SlogP_VSA5>
0

>  <SlogP_VSA6>
0

>  <SlogP_VSA7>
233.65

>  <SlogP_VSA8>
0

>  <SlogP_VSA9>
33.3997

>  <SMR>
13.933

>  <SMR_VSA0>
95.4489

>  <SMR_VSA1>
21.2087

>  <SMR_VSA2>
43.9173

>  <SMR_VSA3>
12.7423

>  <SMR_VSA4>
4.7171

>  <SMR_VSA5>
247.372

>  <SMR_VSA6>
95.2223

>  <SMR_VSA7>
0

>  <ASA>
795.655

>  <ASA+>
337.697

>  <ASA->
329.254

>  <ASA_H>
587.425

>  <ASA_P>
208.229

>  <CASA+>
2364.89

>  <CASA->
2306.09

>  <DASA>
8.44336

>  <DCASA>
58.7996

>  <FASA+>
0.424427

>  <FASA->
0.413815

>  <FASA_H>
0.738292

>  <FASA_P>
0.261708

>  <FCASA+>
2.97226

>  <FCASA->
2.89836

>  <VSA>
515.634

>  <TPSA>
102.58

>  <density>
0.764893

>  <vdw_area>
485.629

>  <vdw_vol>
670.082

>  <vsurf_A>
1.80191

>  <vsurf_CP>
0.0784308

>  <vsurf_CW1>
2.59666

>  <vsurf_CW2>
2.07605

>  <vsurf_CW3>
1.29252

>  <vsurf_CW4>
0.654925

>  <vsurf_CW5>
0.317887

>  <vsurf_CW6>
0.125776

>  <vsurf_CW7>
0.0232751

>  <vsurf_CW8>
0.00636294

>  <vsurf_D1>
1100.13

>  <vsurf_D2>
654.625

>  <vsurf_D3>
491.875

>  <vsurf_D4>
421.25

>  <vsurf_D5>
372.5

>  <vsurf_D6>
306

>  <vsurf_D7>
182.125

>  <vsurf_D8>
99.75

>  <vsurf_DD12>
0.866025

>  <vsurf_DD13>
1.22474

>  <vsurf_DD23>
0.5

>  <vsurf_DW12>
0.707107

>  <vsurf_DW13>
0.866025

>  <vsurf_DW23>
0.5

>  <vsurf_EDmin1>
-2.82114

>  <vsurf_EDmin2>
-2.76739

>  <vsurf_EDmin3>
-2.73523

>  <vsurf_EWmin1>
-6.98631

>  <vsurf_EWmin2>
-6.62634

>  <vsurf_EWmin3>
-6.56784

>  <vsurf_G>
1.42871

>  <vsurf_HB1>
378.75

>  <vsurf_HB2>
421.25

>  <vsurf_HB3>
396.25

>  <vsurf_HB4>
176.5

>  <vsurf_HB5>
71.25

>  <vsurf_HB6>
23.375

>  <vsurf_HB7>
5.375

>  <vsurf_HB8>
1.25

>  <vsurf_HL1>
0.165438

>  <vsurf_HL2>
0.0623145

>  <vsurf_ID1>
0.8612

>  <vsurf_ID2>
0.86228

>  <vsurf_ID3>
0.867247

>  <vsurf_ID4>
0.959534

>  <vsurf_ID5>
1.04176

>  <vsurf_ID6>
1.12833

>  <vsurf_ID7>
1.0204

>  <vsurf_ID8>
0.775065

>  <vsurf_IW1>
0.247018

>  <vsurf_IW2>
0.377302

>  <vsurf_IW3>
0.791822

>  <vsurf_IW4>
1.085

>  <vsurf_IW5>
1.37239

>  <vsurf_IW6>
2.2941

>  <vsurf_IW7>
4.92641

>  <vsurf_IW8>
7.30562

>  <vsurf_R>
1.49072

>  <vsurf_S>
732.952

>  <vsurf_V>
1092.63

>  <vsurf_W1>
1746.63

>  <vsurf_W2>
1039

>  <vsurf_W3>
533.75

>  <vsurf_W4>
203.75

>  <vsurf_W5>
81.375

>  <vsurf_W6>
26.25

>  <vsurf_W7>
5.375

>  <vsurf_W8>
1.25

>  <vsurf_Wp1>
1367.88

>  <vsurf_Wp2>
617.75

>  <vsurf_Wp3>
137.5

>  <vsurf_Wp4>
27.25

>  <vsurf_Wp5>
10.125

>  <vsurf_Wp6>
2.875

>  <vsurf_Wp7>
0

>  <vsurf_Wp8>
0

>  <dens>
1.06974

>  <glob>
0.0490894

>  <std_dim1>
5.88954

>  <std_dim2>
1.71893

>  <std_dim3>
1.30489

>  <vol>
479.125

>  <logP(o/w)>
3.319

$$$$
D10.cdx
  MOE2008           3D

 53 56  0  0  0  0  0  0  0  0999 V2000
   -5.6990   14.5480   -0.5950 C   0  0  0  0  0  0  0  0  0  0  0  0
   -6.6240   15.1100   -0.6990 H   0  0  0  0  0  0  0  0  0  0  0  0
   -5.7040   13.2970    0.0190 C   0  0  0  0  0  0  0  0  0  0  0  0
   -6.6560   12.8940    0.3520 H   0  0  0  0  0  0  0  0  0  0  0  0
   -4.5220   12.5560    0.1750 C   0  0  0  0  0  0  0  0  0  0  0  0
   -3.3540   13.1090   -0.3950 C   0  0  0  0  0  0  0  0  0  0  0  0
   -3.3090   14.3590   -1.0190 C   0  0  0  0  0  0  0  0  0  0  0  0
   -4.5140   15.0880   -1.0990 C   0  0  0  0  0  0  0  0  0  0  0  0
   -2.0880   12.5720   -0.4790 N   0  0  0  0  0  0  0  0  0  0  0  0
   -1.8470   11.6520   -0.1270 H   0  0  0  0  0  0  0  0  0  0  0  0
   -1.2400   13.4450   -1.1020 C   0  0  0  0  0  0  0  0  0  0  0  0
   -0.2010   13.1780   -1.2460 H   0  0  0  0  0  0  0  0  0  0  0  0
   -1.9540   14.5790   -1.4500 C   0  0  0  0  0  0  0  0  0  0  0  0
   -1.3930   15.7460   -2.1260 C   0  0  0  0  0  0  0  0  0  0  0  0
    0.0320   15.7110   -2.6570 C   0  0  0  0  0  0  0  0  0  0  0  0
    1.0380   16.1410   -1.7930 N   0  0  0  0  0  0  0  0  0  0  0  0
    2.4330   16.0740   -2.2310 C   0  0  0  0  0  0  0  0  0  0  0  0
    2.5470   15.3230   -3.0210 H   0  0  0  0  0  0  0  0  0  0  0  0
    2.6740   17.0510   -2.6670 H   0  0  0  0  0  0  0  0  0  0  0  0
    3.3820   15.7650   -1.0690 C   0  0  0  0  0  0  0  0  0  0  0  0
    4.4180   15.7730   -1.4210 H   0  0  0  0  0  0  0  0  0  0  0  0
    3.1620   14.7660   -0.6740 H   0  0  0  0  0  0  0  0  0  0  0  0
    3.2310   16.7080    0.0500 N   0  0  0  0  0  0  0  0  0  0  0  0
    1.9720   17.4560    0.1180 C   0  0  0  0  0  0  0  0  0  0  0  0
    1.7660   17.7560    1.1500 H   0  0  0  0  0  0  0  0  0  0  0  0
    2.1230   18.3720   -0.4660 H   0  0  0  0  0  0  0  0  0  0  0  0
    0.7870   16.6660   -0.4450 C   0  0  0  0  0  0  0  0  0  0  0  0
   -0.1100   17.2930   -0.4540 H   0  0  0  0  0  0  0  0  0  0  0  0
    0.5820   15.7990    0.1950 H   0  0  0  0  0  0  0  0  0  0  0  0
    4.2030   16.9570    1.0180 C   0  0  0  0  0  0  0  0  0  0  0  0
    5.4380   16.1410    1.0150 C   0  0  0  0  0  0  0  0  0  0  0  0
   -2.0090   16.7940   -2.2900 O   0  0  0  0  0  0  0  0  0  0  0  0
    0.2060   15.2980   -3.7990 O   0  0  0  0  0  0  0  0  0  0  0  0
    4.1100   17.8290    1.8760 O   0  0  0  0  0  0  0  0  0  0  0  0
   -4.5750   16.2930   -1.6830 F   0  0  0  0  0  0  0  0  0  0  0  0
    5.3820   14.7620    1.2410 C   0  0  0  0  0  0  0  0  0  0  0  0
    4.4320   14.2650    1.4150 H   0  0  0  0  0  0  0  0  0  0  0  0
    6.5640   14.0210    1.2580 C   0  0  0  0  0  0  0  0  0  0  0  0
    6.5330   12.9480    1.4300 H   0  0  0  0  0  0  0  0  0  0  0  0
    7.7920   14.6590    1.0660 C   0  0  0  0  0  0  0  0  0  0  0  0
    8.7120   14.0790    1.0840 H   0  0  0  0  0  0  0  0  0  0  0  0
    7.8440   16.0390    0.8640 C   0  0  0  0  0  0  0  0  0  0  0  0
    8.8030   16.5320    0.7280 H   0  0  0  0  0  0  0  0  0  0  0  0
    6.6660   16.7860    0.8440 C   0  0  0  0  0  0  0  0  0  0  0  0
    6.7080   17.8630    0.6990 H   0  0  0  0  0  0  0  0  0  0  0  0
   -4.5050   11.2100    0.8100 C   0  0  0  0  0  0  0  0  0  0  0  0
   -5.2840   10.9070    1.9010 N   0  0  0  0  0  0  0  0  0  0  0  0
   -5.2400    9.9280    2.1630 H   0  0  0  0  0  0  0  0  0  0  0  0
   -3.7240   10.3740    0.3560 O   0  0  0  0  0  0  0  0  0  0  0  0
   -6.1010   11.7700    2.7260 C   0  0  0  0  0  0  0  0  0  0  0  0
   -5.6870   12.7790    2.7620 H   0  0  0  0  0  0  0  0  0  0  0  0
   -6.1220   11.3520    3.7360 H   0  0  0  0  0  0  0  0  0  0  0  0
   -7.1180   11.7820    2.3250 H   0  0  0  0  0  0  0  0  0  0  0  0
  1  2  1  0  0  0  0
  1  3  1  0  0  0  0
  1  8  2  0  0  0  0
  3  4  1  0  0  0  0
  3  5  2  0  0  0  0
  5  6  1  0  0  0  0
  5 46  1  0  0  0  0
  6  7  2  0  0  0  0
  6  9  1  0  0  0  0
  7  8  1  0  0  0  0
  7 13  1  0  0  0  0
  8 35  1  0  0  0  0
  9 10  1  0  0  0  0
  9 11  1  0  0  0  0
 11 12  1  0  0  0  0
 11 13  2  0  0  0  0
 13 14  1  0  0  0  0
 14 15  1  0  0  0  0
 14 32  2  0  0  0  0
 15 16  1  0  0  0  0
 15 33  2  0  0  0  0
 16 17  1  0  0  0  0
 16 27  1  0  0  0  0
 17 18  1  0  0  0  0
 17 19  1  0  0  0  0
 17 20  1  0  0  0  0
 20 21  1  0  0  0  0
 20 22  1  0  0  0  0
 20 23  1  0  0  0  0
 23 24  1  0  0  0  0
 23 30  1  0  0  0  0
 24 25  1  0  0  0  0
 24 26  1  0  0  0  0
 24 27  1  0  0  0  0
 27 28  1  0  0  0  0
 27 29  1  0  0  0  0
 30 31  1  0  0  0  0
 30 34  2  0  0  0  0
 31 36  1  0  0  0  0
 31 44  2  0  0  0  0
 36 37  1  0  0  0  0
 36 38  2  0  0  0  0
 38 39  1  0  0  0  0
 38 40  1  0  0  0  0
 40 41  1  0  0  0  0
 40 42  2  0  0  0  0
 42 43  1  0  0  0  0
 42 44  1  0  0  0  0
 44 45  1  0  0  0  0
 46 47  1  0  0  0  0
 46 49  2  0  0  0  0
 47 48  1  0  0  0  0
 47 50  1  0  0  0  0
 50 51  1  0  0  0  0
 50 52  1  0  0  0  0
 50 53  1  0  0  0  0
M  END
>  <Activity>
9.2839

>  <AM1_dipole>
4.68889

>  <AM1_E>
-134357

>  <AM1_Eele>
-1.03568e+006

>  <AM1_HF>
-73.9836

>  <AM1_HOMO>
-9.04647

>  <AM1_IP>
9.04647

>  <AM1_LUMO>
-0.92519

>  <diameter>
17

>  <petitjean>
0.470588

>  <petitjeanSC>
0.888889

>  <radius>
9

>  <VDistEq>
3.81056

>  <VDistMa>
9.6837

>  <weinerPath>
3172

>  <weinerPol>
56

>  <BCUT_PEOE_0>
-2.71188

>  <BCUT_PEOE_1>
-0.616917

>  <BCUT_PEOE_2>
0.607696

>  <BCUT_PEOE_3>
2.65031

>  <BCUT_SLOGP_0>
-2.86001

>  <BCUT_SLOGP_1>
-0.520112

>  <BCUT_SLOGP_2>
0.722271

>  <BCUT_SLOGP_3>
2.50335

>  <BCUT_SMR_0>
-2.43203

>  <BCUT_SMR_1>
-0.416334

>  <BCUT_SMR_2>
0.771763

>  <BCUT_SMR_3>
2.92027

>  <GCUT_PEOE_0>
-0.858689

>  <GCUT_PEOE_1>
-0.430522

>  <GCUT_PEOE_2>
0.0767109

>  <GCUT_PEOE_3>
2.70009

>  <GCUT_SLOGP_0>
-1.16077

>  <GCUT_SLOGP_1>
-0.332279

>  <GCUT_SLOGP_2>
0.165137

>  <GCUT_SLOGP_3>
2.67628

>  <GCUT_SMR_0>
-0.508925

>  <GCUT_SMR_1>
-0.215309

>  <GCUT_SMR_2>
0.193683

>  <GCUT_SMR_3>
2.97124

>  <a_aro>
15

>  <a_count>
53

>  <a_IC>
91.2992

>  <a_ICM>
1.72263

>  <a_nH>
21

>  <b_1rotN>
6

>  <b_1rotR>
0.171429

>  <b_ar>
16

>  <b_count>
56

>  <b_double>
4

>  <b_rotN>
7

>  <b_rotR>
0.2

>  <b_single>
36

>  <b_triple>
0

>  <chi0v>
17.3526

>  <chi0v_C>
13.4472

>  <chi1v>
10.1163

>  <chi1v_C>
6.11004

>  <chiral>
0

>  <chiral_u>
0

>  <nmol>
1

>  <reactive>
0

>  <rings>
4

>  <Weight>
436.443

>  <a_heavy>
32

>  <a_nB>
0

>  <a_nBr>
0

>  <a_nC>
23

>  <a_nCl>
0

>  <a_nF>
1

>  <a_nI>
0

>  <a_nN>
4

>  <a_nO>
4

>  <a_nP>
0

>  <a_nS>
0

>  <b_heavy>
35

>  <chi0>
22.8277

>  <chi0_C>
15.2588

>  <chi1>
15.4179

>  <chi1_C>
8.20791

>  <FCharge>
0

>  <VAdjEq>
0.359771

>  <VAdjMa>
6.12928

>  <zagreb>
170

>  <balabanJ>
1.3244

>  <PEOE_PC+>
3.01877

>  <PEOE_PC->
-3.01877

>  <PEOE_RPC+>
0.0977551

>  <PEOE_RPC->
0.119016

>  <PEOE_VSA+0>
109.967

>  <PEOE_VSA+1>
79.3628

>  <PEOE_VSA+2>
9.02085

>  <PEOE_VSA+3>
17.238

>  <PEOE_VSA+4>
0

>  <PEOE_VSA+5>
47.3071

>  <PEOE_VSA+6>
0

>  <PEOE_VSA-0>
49.0196

>  <PEOE_VSA-1>
36.7647

>  <PEOE_VSA-2>
0

>  <PEOE_VSA-3>
0

>  <PEOE_VSA-4>
11.9086

>  <PEOE_VSA-5>
54.2677

>  <PEOE_VSA-6>
0.273782

>  <PEOE_VSA_FHYD>
0.725972

>  <PEOE_VSA_FNEG>
0.366715

>  <PEOE_VSA_FPNEG>
0.16007

>  <PEOE_VSA_FPOL>
0.274028

>  <PEOE_VSA_FPOS>
0.633285

>  <PEOE_VSA_FPPOS>
0.113957

>  <PEOE_VSA_HYD>
301.373

>  <PEOE_VSA_NEG>
152.234

>  <PEOE_VSA_PNEG>
66.4501

>  <PEOE_VSA_POL>
113.757

>  <PEOE_VSA_POS>
262.896

>  <PEOE_VSA_PPOS>
47.3071

>  <PC+>
6.109

>  <PC->
-6.11

>  <Q_PC+>
6.109

>  <Q_PC->
-6.11

>  <Q_RPC+>
0.107383

>  <Q_RPC->
0.119476

>  <Q_VSA_FHYD>
0.490031

>  <Q_VSA_FNEG>
0.428182

>  <Q_VSA_FPNEG>
0.171393

>  <Q_VSA_FPOL>
0.509969

>  <Q_VSA_FPOS>
0.571818

>  <Q_VSA_FPPOS>
0.338576

>  <Q_VSA_HYD>
203.427

>  <Q_VSA_NEG>
177.752

>  <Q_VSA_PNEG>
71.1505

>  <Q_VSA_POL>
211.704

>  <Q_VSA_POS>
237.379

>  <Q_VSA_PPOS>
140.553

>  <RPC+>
0.107383

>  <RPC->
0.119476

>  <lip_acc>
8

>  <lip_don>
2

>  <lip_druglike>
1

>  <lip_violation>
0

>  <opr_brigid>
22

>  <opr_leadlike>
1

>  <opr_nring>
4

>  <opr_nrot>
6

>  <opr_violation>
0

>  <E>
102.617

>  <E_ang>
13.9932

>  <E_ele>
23.814

>  <E_nb>
74.6276

>  <E_oop>
0.176356

>  <E_sol>
-25.7582

>  <E_stb>
0.69792

>  <E_str>
6.78037

>  <E_strain>
0.00600913

>  <E_tor>
6.3416

>  <E_vdw>
50.8136

>  <E_rele>
0

>  <E_rnb>
-9.9476e-014

>  <E_rsol>
-9.9476e-014

>  <E_rvdw>
0

>  <Kier1>
25.1037

>  <Kier2>
11.16

>  <Kier3>
5.32653

>  <KierA1>
17.108

>  <KierA2>
7.5033

>  <KierA3>
3.54715

>  <KierFlex>
4.01145

>  <logS>
-4.4707

>  <MNDO_dipole>
6.32539

>  <MNDO_E>
-134506

>  <MNDO_Eele>
-1.02837e+006

>  <MNDO_HF>
-94.2666

>  <MNDO_HOMO>
-9.17521

>  <MNDO_IP>
9.17521

>  <MNDO_LUMO>
-1.00908

>  <apol>
62.6477

>  <bpol>
33.2723

>  <mr>
11.6833

>  <dipole>
1.41818

>  <dipoleX>
-0.00300228

>  <dipoleY>
-1.04627

>  <dipoleZ>
0.957371

>  <pmi>
10954.5

>  <pmiX>
8137.35

>  <pmiY>
1788.24

>  <pmiZ>
1028.88

>  <rgyr>
5.00993

>  <a_acc>
4

>  <a_acid>
0

>  <a_base>
0

>  <a_don>
2

>  <a_hyd>
20

>  <vsa_acc>
54.2677

>  <vsa_acid>
0

>  <vsa_base>
0

>  <vsa_don>
11.3652

>  <vsa_hyd>
282.52

>  <vsa_other>
47.3071

>  <vsa_pol>
65.6328

>  <PM3_dipole>
5.61847

>  <PM3_E>
-122489

>  <PM3_Eele>
-1.0168e+006

>  <PM3_HF>
-110.9

>  <PM3_HOMO>
-9.08736

>  <PM3_IP>
9.08736

>  <PM3_LUMO>
-0.99739

>  <SlogP>
1.8339

>  <SlogP_VSA0>
18.0107

>  <SlogP_VSA1>
27.7126

>  <SlogP_VSA2>
49.7688

>  <SlogP_VSA3>
73.7583

>  <SlogP_VSA4>
81.1434

>  <SlogP_VSA5>
32.8972

>  <SlogP_VSA6>
0

>  <SlogP_VSA7>
145.434

>  <SlogP_VSA8>
0

>  <SlogP_VSA9>
14.9601

>  <SMR>
11.4903

>  <SMR_VSA0>
95.4489

>  <SMR_VSA1>
21.2087

>  <SMR_VSA2>
43.9173

>  <SMR_VSA3>
9.55672

>  <SMR_VSA4>
4.7171

>  <SMR_VSA5>
140.717

>  <SMR_VSA6>
95.2223

>  <SMR_VSA7>
32.8972

>  <ASA>
695.643

>  <ASA+>
273.719

>  <ASA->
265.741

>  <ASA_H>
460.918

>  <ASA_P>
234.725

>  <CASA+>
1672.15

>  <CASA->
1623.68

>  <DASA>
7.9776

>  <DCASA>
48.4694

>  <FASA+>
0.393476

>  <FASA->
0.382008

>  <FASA_H>
0.662578

>  <FASA_P>
0.337422

>  <FCASA+>
2.40374

>  <FCASA->
2.33407

>  <VSA>
431.655

>  <TPSA>
102.58

>  <density>
0.78623

>  <vdw_area>
415.13

>  <vdw_vol>
555.108

>  <vsurf_A>
2.55844

>  <vsurf_CP>
0.0779525

>  <vsurf_CW1>
2.6697

>  <vsurf_CW2>
2.15673

>  <vsurf_CW3>
1.46155

>  <vsurf_CW4>
0.754912

>  <vsurf_CW5>
0.363893

>  <vsurf_CW6>
0.147157

>  <vsurf_CW7>
0.026423

>  <vsurf_CW8>
0.00522054

>  <vsurf_D1>
904.25

>  <vsurf_D2>
534.75

>  <vsurf_D3>
402.5

>  <vsurf_D4>
340.5

>  <vsurf_D5>
291.125

>  <vsurf_D6>
231.5

>  <vsurf_D7>
137.75

>  <vsurf_D8>
81.5

>  <vsurf_DD12>
4.12311

>  <vsurf_DD13>
3.90512

>  <vsurf_DD23>
0.5

>  <vsurf_DW12>
0.5

>  <vsurf_DW13>
0.5

>  <vsurf_DW23>
0.707107

>  <vsurf_EDmin1>
-2.76024

>  <vsurf_EDmin2>
-2.71062

>  <vsurf_EDmin3>
-2.65982

>  <vsurf_EWmin1>
-6.82826

>  <vsurf_EWmin2>
-6.82388

>  <vsurf_EWmin3>
-6.47708

>  <vsurf_G>
1.38323

>  <vsurf_HB1>
381.5

>  <vsurf_HB2>
445.625

>  <vsurf_HB3>
388.625

>  <vsurf_HB4>
178.25

>  <vsurf_HB5>
70.125

>  <vsurf_HB6>
24.375

>  <vsurf_HB7>
5.25

>  <vsurf_HB8>
1

>  <vsurf_HL1>
0.195031

>  <vsurf_HL2>
0.0759912

>  <vsurf_ID1>
1.23357

>  <vsurf_ID2>
1.19684

>  <vsurf_ID3>
1.33744

>  <vsurf_ID4>
1.5338

>  <vsurf_ID5>
1.69332

>  <vsurf_ID6>
1.72303

>  <vsurf_ID7>
0.933841

>  <vsurf_ID8>
0.69589

>  <vsurf_IW1>
0.320497

>  <vsurf_IW2>
0.515669

>  <vsurf_IW3>
0.965583

>  <vsurf_IW4>
1.52909

>  <vsurf_IW5>
1.78488

>  <vsurf_IW6>
2.88335

>  <vsurf_IW7>
6.07616

>  <vsurf_IW8>
8.33409

>  <vsurf_R>
1.44972

>  <vsurf_S>
629.085

>  <vsurf_V>
912

>  <vsurf_W1>
1560

>  <vsurf_W2>
967

>  <vsurf_W3>
518.625

>  <vsurf_W4>
203.25

>  <vsurf_W5>
78.5

>  <vsurf_W6>
25.875

>  <vsurf_W7>
5.25

>  <vsurf_W8>
1

>  <vsurf_Wp1>
1178.5

>  <vsurf_Wp2>
521.375

>  <vsurf_Wp3>
130

>  <vsurf_Wp4>
25

>  <vsurf_Wp5>
8.375

>  <vsurf_Wp6>
1.5

>  <vsurf_Wp7>
0

>  <vsurf_Wp8>
0

>  <dens>
1.10422

>  <glob>
0.0620763

>  <std_dim1>
4.82974

>  <std_dim2>
1.97892

>  <std_dim3>
1.20334

>  <vol>
395.25

>  <logP(o/w)>
1.531

$$$$
D10.cdx
  MOE2008           3D

 60 63  0  0  0  0  0  0  0  0999 V2000
   -3.6230   -1.7260   -2.2890 C   0  0  0  0  0  0  0  0  0  0  0  0
   -4.5420   -1.1750   -2.4750 H   0  0  0  0  0  0  0  0  0  0  0  0
   -3.6710   -3.0270   -1.7980 C   0  0  0  0  0  0  0  0  0  0  0  0
   -4.6390   -3.4890   -1.6190 H   0  0  0  0  0  0  0  0  0  0  0  0
   -2.4910   -3.7420   -1.5390 C   0  0  0  0  0  0  0  0  0  0  0  0
   -1.2720   -3.1160   -1.8590 C   0  0  0  0  0  0  0  0  0  0  0  0
   -1.1860   -1.8070   -2.3430 C   0  0  0  0  0  0  0  0  0  0  0  0
   -2.3960   -1.1090   -2.5490 C   0  0  0  0  0  0  0  0  0  0  0  0
    0.0120   -3.6040   -1.7730 N   0  0  0  0  0  0  0  0  0  0  0  0
    0.2410   -4.5460   -1.4770 H   0  0  0  0  0  0  0  0  0  0  0  0
    0.9080   -2.6410   -2.1420 C   0  0  0  0  0  0  0  0  0  0  0  0
    1.9690   -2.8570   -2.1220 H   0  0  0  0  0  0  0  0  0  0  0  0
    0.2090   -1.5000   -2.4990 C   0  0  0  0  0  0  0  0  0  0  0  0
    0.8260   -0.2480   -2.9270 C   0  0  0  0  0  0  0  0  0  0  0  0
    2.3400   -0.1020   -2.8910 C   0  0  0  0  0  0  0  0  0  0  0  0
    2.8990    0.2640   -1.6670 N   0  0  0  0  0  0  0  0  0  0  0  0
    4.3540    0.3090   -1.5280 C   0  0  0  0  0  0  0  0  0  0  0  0
    4.8280   -0.3180   -2.2910 H   0  0  0  0  0  0  0  0  0  0  0  0
    4.6590    1.3450   -1.7160 H   0  0  0  0  0  0  0  0  0  0  0  0
    4.8020   -0.1310   -0.1310 C   0  0  0  0  0  0  0  0  0  0  0  0
    5.8890   -0.0430   -0.0400 H   0  0  0  0  0  0  0  0  0  0  0  0
    4.5290   -1.1820    0.0250 H   0  0  0  0  0  0  0  0  0  0  0  0
    4.1530    0.6420    0.9400 N   0  0  0  0  0  0  0  0  0  0  0  0
    2.9180    1.3480    0.5880 C   0  0  0  0  0  0  0  0  0  0  0  0
    2.3050    1.5080    1.4820 H   0  0  0  0  0  0  0  0  0  0  0  0
    3.2180    2.3350    0.2150 H   0  0  0  0  0  0  0  0  0  0  0  0
    2.1050    0.6090   -0.4790 C   0  0  0  0  0  0  0  0  0  0  0  0
    1.2420    1.2120   -0.7790 H   0  0  0  0  0  0  0  0  0  0  0  0
    1.7290   -0.3340   -0.0670 H   0  0  0  0  0  0  0  0  0  0  0  0
    4.6440    0.7690    2.2380 C   0  0  0  0  0  0  0  0  0  0  0  0
    5.8130   -0.0460    2.6380 C   0  0  0  0  0  0  0  0  0  0  0  0
    0.1910    0.7320   -3.3030 O   0  0  0  0  0  0  0  0  0  0  0  0
    2.9660   -0.3400   -3.9180 O   0  0  0  0  0  0  0  0  0  0  0  0
    4.1710    1.5250    3.0820 O   0  0  0  0  0  0  0  0  0  0  0  0
   -2.4150    0.1520   -3.0040 F   0  0  0  0  0  0  0  0  0  0  0  0
    5.7320   -1.4420    2.6600 C   0  0  0  0  0  0  0  0  0  0  0  0
    4.8140   -1.9490    2.3770 H   0  0  0  0  0  0  0  0  0  0  0  0
    6.8390   -2.1870    3.0680 C   0  0  0  0  0  0  0  0  0  0  0  0
    6.7880   -3.2730    3.0870 H   0  0  0  0  0  0  0  0  0  0  0  0
    8.0110   -1.5390    3.4640 C   0  0  0  0  0  0  0  0  0  0  0  0
    8.8700   -2.1220    3.7850 H   0  0  0  0  0  0  0  0  0  0  0  0
    8.0790   -0.1440    3.4610 C   0  0  0  0  0  0  0  0  0  0  0  0
    8.9890    0.3560    3.7840 H   0  0  0  0  0  0  0  0  0  0  0  0
    6.9770    0.6080    3.0550 C   0  0  0  0  0  0  0  0  0  0  0  0
    7.0250    1.6940    3.0650 H   0  0  0  0  0  0  0  0  0  0  0  0
   -2.5410   -5.1230   -1.0110 C   0  0  0  0  0  0  0  0  0  0  0  0
   -3.2830   -5.4120    0.1100 N   0  0  0  0  0  0  0  0  0  0  0  0
   -3.3480   -6.4050    0.3060 H   0  0  0  0  0  0  0  0  0  0  0  0
   -1.8640   -5.9840   -1.5660 O   0  0  0  0  0  0  0  0  0  0  0  0
   -3.9380   -4.4880    1.0260 C   0  0  0  0  0  0  0  0  0  0  0  0
   -3.5800   -3.4670    0.8670 H   0  0  0  0  0  0  0  0  0  0  0  0
   -5.0080   -4.5040    0.7940 H   0  0  0  0  0  0  0  0  0  0  0  0
   -3.6970   -4.8730    2.4870 C   0  0  0  0  0  0  0  0  0  0  0  0
   -2.6230   -5.0250    2.6460 H   0  0  0  0  0  0  0  0  0  0  0  0
   -4.1910   -5.8190    2.7410 H   0  0  0  0  0  0  0  0  0  0  0  0
   -4.0980   -3.8360    3.3810 O   0  0  0  0  0  0  0  0  0  0  0  0
   -5.5040   -3.7750    3.5750 C   0  0  0  0  0  0  0  0  0  0  0  0
   -6.0160   -3.5070    2.6470 H   0  0  0  0  0  0  0  0  0  0  0  0
   -5.7130   -3.0000    4.3180 H   0  0  0  0  0  0  0  0  0  0  0  0
   -5.8830   -4.7300    3.9540 H   0  0  0  0  0  0  0  0  0  0  0  0
  1  2  1  0  0  0  0
  1  3  1  0  0  0  0
  1  8  2  0  0  0  0
  3  4  1  0  0  0  0
  3  5  2  0  0  0  0
  5  6  1  0  0  0  0
  5 46  1  0  0  0  0
  6  7  2  0  0  0  0
  6  9  1  0  0  0  0
  7  8  1  0  0  0  0
  7 13  1  0  0  0  0
  8 35  1  0  0  0  0
  9 10  1  0  0  0  0
  9 11  1  0  0  0  0
 11 12  1  0  0  0  0
 11 13  2  0  0  0  0
 13 14  1  0  0  0  0
 14 15  1  0  0  0  0
 14 32  2  0  0  0  0
 15 16  1  0  0  0  0
 15 33  2  0  0  0  0
 16 17  1  0  0  0  0
 16 27  1  0  0  0  0
 17 18  1  0  0  0  0
 17 19  1  0  0  0  0
 17 20  1  0  0  0  0
 20 21  1  0  0  0  0
 20 22  1  0  0  0  0
 20 23  1  0  0  0  0
 23 24  1  0  0  0  0
 23 30  1  0  0  0  0
 24 25  1  0  0  0  0
 24 26  1  0  0  0  0
 24 27  1  0  0  0  0
 27 28  1  0  0  0  0
 27 29  1  0  0  0  0
 30 31  1  0  0  0  0
 30 34  2  0  0  0  0
 31 36  1  0  0  0  0
 31 44  2  0  0  0  0
 36 37  1  0  0  0  0
 36 38  2  0  0  0  0
 38 39  1  0  0  0  0
 38 40  1  0  0  0  0
 40 41  1  0  0  0  0
 40 42  2  0  0  0  0
 42 43  1  0  0  0  0
 42 44  1  0  0  0  0
 44 45  1  0  0  0  0
 46 47  1  0  0  0  0
 46 49  2  0  0  0  0
 47 48  1  0  0  0  0
 47 50  1  0  0  0  0
 50 51  1  0  0  0  0
 50 52  1  0  0  0  0
 50 53  1  0  0  0  0
 53 54  1  0  0  0  0
 53 55  1  0  0  0  0
 53 56  1  0  0  0  0
 56 57  1  0  0  0  0
 57 58  1  0  0  0  0
 57 59  1  0  0  0  0
 57 60  1  0  0  0  0
M  END
>  <Activity>
7.7253

>  <AM1_dipole>
5.20407

>  <AM1_E>
-148927

>  <AM1_Eele>
-1.20794e+006

>  <AM1_HF>
-121.122

>  <AM1_HOMO>
-9.04374

>  <AM1_IP>
9.04374

>  <AM1_LUMO>
-0.90627

>  <diameter>
20

>  <petitjean>
0.5

>  <petitjeanSC>
1

>  <radius>
10

>  <VDistEq>
3.9786

>  <VDistMa>
9.93987

>  <weinerPath>
4184

>  <weinerPol>
59

>  <BCUT_PEOE_0>
-2.71188

>  <BCUT_PEOE_1>
-0.585574

>  <BCUT_PEOE_2>
0.589237

>  <BCUT_PEOE_3>
2.65031

>  <BCUT_SLOGP_0>
-2.86001

>  <BCUT_SLOGP_1>
-0.498497

>  <BCUT_SLOGP_2>
0.692639

>  <BCUT_SLOGP_3>
2.50336

>  <BCUT_SMR_0>
-2.43203

>  <BCUT_SMR_1>
-0.401232

>  <BCUT_SMR_2>
0.736349

>  <BCUT_SMR_3>
2.92027

>  <GCUT_PEOE_0>
-0.85832

>  <GCUT_PEOE_1>
-0.417066

>  <GCUT_PEOE_2>
0.073302

>  <GCUT_PEOE_3>
2.72723

>  <GCUT_SLOGP_0>
-1.1614

>  <GCUT_SLOGP_1>
-0.314116

>  <GCUT_SLOGP_2>
0.163364

>  <GCUT_SLOGP_3>
2.70361

>  <GCUT_SMR_0>
-0.511645

>  <GCUT_SMR_1>
-0.214495

>  <GCUT_SMR_2>
0.184999

>  <GCUT_SMR_3>
2.99735

>  <a_aro>
15

>  <a_count>
60

>  <a_IC>
102.611

>  <a_ICM>
1.71018

>  <a_nH>
25

>  <b_1rotN>
9

>  <b_1rotR>
0.236842

>  <b_ar>
16

>  <b_count>
63

>  <b_double>
4

>  <b_rotN>
10

>  <b_rotR>
0.263158

>  <b_single>
43

>  <b_triple>
0

>  <chi0v>
19.1751

>  <chi0v_C>
14.8614

>  <chi1v>
11.1668

>  <chi1v_C>
6.61004

>  <chiral>
0

>  <chiral_u>
0

>  <nmol>
1

>  <reactive>
0

>  <rings>
4

>  <Weight>
480.496

>  <a_heavy>
35

>  <a_nB>
0

>  <a_nBr>
0

>  <a_nC>
25

>  <a_nCl>
0

>  <a_nF>
1

>  <a_nI>
0

>  <a_nN>
4

>  <a_nO>
5

>  <a_nP>
0

>  <a_nS>
0

>  <b_heavy>
38

>  <chi0>
24.949

>  <chi0_C>
16.673

>  <chi1>
16.9179

>  <chi1_C>
8.70791

>  <FCharge>
0

>  <VAdjEq>
0.335493

>  <VAdjMa>
6.24793

>  <zagreb>
182

>  <balabanJ>
1.30506

>  <PEOE_PC+>
3.39476

>  <PEOE_PC->
-3.39476

>  <PEOE_RPC+>
0.0869283

>  <PEOE_RPC->
0.112302

>  <PEOE_VSA+0>
112.122

>  <PEOE_VSA+1>
124.172

>  <PEOE_VSA+2>
9.02085

>  <PEOE_VSA+3>
17.238

>  <PEOE_VSA+4>
0

>  <PEOE_VSA+5>
47.3071

>  <PEOE_VSA+6>
0

>  <PEOE_VSA-0>
49.0196

>  <PEOE_VSA-1>
36.7647

>  <PEOE_VSA-2>
0

>  <PEOE_VSA-3>
0

>  <PEOE_VSA-4>
11.9086

>  <PEOE_VSA-5>
54.2677

>  <PEOE_VSA-6>
2.77754

>  <PEOE_VSA_FHYD>
0.74976

>  <PEOE_VSA_FNEG>
0.333058

>  <PEOE_VSA_FPNEG>
0.148416

>  <PEOE_VSA_FPOL>
0.25024

>  <PEOE_VSA_FPOS>
0.666942

>  <PEOE_VSA_FPPOS>
0.101824

>  <PEOE_VSA_HYD>
348.337

>  <PEOE_VSA_NEG>
154.738

>  <PEOE_VSA_PNEG>
68.9539

>  <PEOE_VSA_POL>
116.261

>  <PEOE_VSA_POS>
309.86

>  <PEOE_VSA_PPOS>
47.3071

>  <PC+>
6.669

>  <PC->
-6.67

>  <Q_PC+>
6.669

>  <Q_PC->
-6.67

>  <Q_RPC+>
0.0983656

>  <Q_RPC->
0.109445

>  <Q_VSA_FHYD>
0.474578

>  <Q_VSA_FNEG>
0.387981

>  <Q_VSA_FPNEG>
0.158533

>  <Q_VSA_FPOL>
0.525422

>  <Q_VSA_FPOS>
0.612019

>  <Q_VSA_FPPOS>
0.366888

>  <Q_VSA_HYD>
220.488

>  <Q_VSA_NEG>
180.255

>  <Q_VSA_PNEG>
73.6542

>  <Q_VSA_POL>
244.11

>  <Q_VSA_POS>
284.343

>  <Q_VSA_PPOS>
170.456

>  <RPC+>
0.0983656

>  <RPC->
0.109445

>  <lip_acc>
9

>  <lip_don>
2

>  <lip_druglike>
1

>  <lip_violation>
0

>  <opr_brigid>
22

>  <opr_leadlike>
0

>  <opr_nring>
4

>  <opr_nrot>
9

>  <opr_violation>
2

>  <E>
118.956

>  <E_ang>
13.5268

>  <E_ele>
31.9558

>  <E_nb>
85.6059

>  <E_oop>
0.146628

>  <E_sol>
-29.2782

>  <E_stb>
0.776853

>  <E_str>
6.75459

>  <E_strain>
0.00648656

>  <E_tor>
12.1453

>  <E_vdw>
53.6501

>  <E_rele>
0

>  <E_rnb>
0

>  <E_rsol>
0

>  <E_rvdw>
0

>  <Kier1>
28.0194

>  <Kier2>
13.1812

>  <Kier3>
6.53331

>  <KierA1>
19.786

>  <KierA2>
9.20527

>  <KierA3>
4.52604

>  <KierFlex>
5.20387

>  <logS>
-4.61334

>  <MNDO_dipole>
6.98775

>  <MNDO_E>
-149143

>  <MNDO_Eele>
-1.2043e+006

>  <MNDO_HF>
-125.2

>  <MNDO_HOMO>
-9.16678

>  <MNDO_IP>
9.16678

>  <MNDO_LUMO>
-0.98177

>  <apol>
69.6368

>  <bpol>
39.5612

>  <mr>
12.8208

>  <dipole>
1.62063

>  <dipoleX>
-0.263599

>  <dipoleY>
-1.29033

>  <dipoleZ>
0.944457

>  <pmi>
12488.7

>  <pmiX>
7344.02

>  <pmiY>
2278.82

>  <pmiZ>
2865.86

>  <rgyr>
5.09816

>  <a_acc>
5

>  <a_acid>
0

>  <a_base>
0

>  <a_don>
2

>  <a_hyd>
22

>  <vsa_acc>
56.7714

>  <vsa_acid>
0

>  <vsa_base>
0

>  <vsa_don>
11.3652

>  <vsa_hyd>
326.637

>  <vsa_other>
47.3071

>  <vsa_pol>
68.1366

>  <PM3_dipole>
5.6045

>  <PM3_E>
-136149

>  <PM3_Eele>
-1.19219e+006

>  <PM3_HF>
-152.547

>  <PM3_HOMO>
-9.08155

>  <PM3_IP>
9.08155

>  <PM3_LUMO>
-0.98031

>  <SlogP>
1.8505

>  <SlogP_VSA0>
18.0107

>  <SlogP_VSA1>
27.7126

>  <SlogP_VSA2>
60.7687

>  <SlogP_VSA3>
113.124

>  <SlogP_VSA4>
81.1434

>  <SlogP_VSA5>
35.3839

>  <SlogP_VSA6>
0

>  <SlogP_VSA7>
145.434

>  <SlogP_VSA8>
0

>  <SlogP_VSA9>
14.9601

>  <SMR>
12.5722

>  <SMR_VSA0>
106.449

>  <SMR_VSA1>
21.2087

>  <SMR_VSA2>
43.9173

>  <SMR_VSA3>
9.55672

>  <SMR_VSA4>
4.7171

>  <SMR_VSA5>
140.717

>  <SMR_VSA6>
134.588

>  <SMR_VSA7>
35.3839

>  <ASA>
772.347

>  <ASA+>
284.545

>  <ASA->
278.712

>  <ASA_H>
514.29

>  <ASA_P>
258.057

>  <CASA+>
1897.63

>  <CASA->
1859.01

>  <DASA>
5.83344

>  <DCASA>
38.6245

>  <FASA+>
0.368416

>  <FASA->
0.360863

>  <FASA_H>
0.665879

>  <FASA_P>
0.33412

>  <FCASA+>
2.45697

>  <FCASA->
2.40696

>  <VSA>
484.966

>  <TPSA>
111.81

>  <density>
0.781767

>  <vdw_area>
464.598

>  <vdw_vol>
614.628

>  <vsurf_A>
2.85351

>  <vsurf_CP>
0.0707774

>  <vsurf_CW1>
2.61821

>  <vsurf_CW2>
2.14741

>  <vsurf_CW3>
1.4906

>  <vsurf_CW4>
0.826912

>  <vsurf_CW5>
0.385628

>  <vsurf_CW6>
0.130429

>  <vsurf_CW7>
0.0194603

>  <vsurf_CW8>
0.00473916

>  <vsurf_D1>
901.25

>  <vsurf_D2>
546.125

>  <vsurf_D3>
416.375

>  <vsurf_D4>
351.625

>  <vsurf_D5>
302.75

>  <vsurf_D6>
228.625

>  <vsurf_D7>
139.25

>  <vsurf_D8>
77.875

>  <vsurf_DD12>
3.20156

>  <vsurf_DD13>
0.707107

>  <vsurf_DD23>
3.04138

>  <vsurf_DW12>
0.707107

>  <vsurf_DW13>
0.707107

>  <vsurf_DW23>
0.707107

>  <vsurf_EDmin1>
-2.995

>  <vsurf_EDmin2>
-2.88071

>  <vsurf_EDmin3>
-2.86878

>  <vsurf_EWmin1>
-6.69503

>  <vsurf_EWmin2>
-6.55945

>  <vsurf_EWmin3>
-6.50689

>  <vsurf_G>
1.43968

>  <vsurf_HB1>
484.5

>  <vsurf_HB2>
585.625

>  <vsurf_HB3>
482

>  <vsurf_HB4>
214.125

>  <vsurf_HB5>
77.875

>  <vsurf_HB6>
24.25

>  <vsurf_HB7>
3.875

>  <vsurf_HB8>
0.875

>  <vsurf_HL1>
0.211348

>  <vsurf_HL2>
0.0753644

>  <vsurf_ID1>
1.2884

>  <vsurf_ID2>
1.2966

>  <vsurf_ID3>
1.48481

>  <vsurf_ID4>
1.71307

>  <vsurf_ID5>
1.89147

>  <vsurf_ID6>
2.09099

>  <vsurf_ID7>
1.06283

>  <vsurf_ID8>
0.829794

>  <vsurf_IW1>
0.376422

>  <vsurf_IW2>
0.418057

>  <vsurf_IW3>
0.829995

>  <vsurf_IW4>
1.34007

>  <vsurf_IW5>
1.71482

>  <vsurf_IW6>
2.67742

>  <vsurf_IW7>
6.18906

>  <vsurf_IW8>
7.68672

>  <vsurf_R>
1.4434

>  <vsurf_S>
703.115

>  <vsurf_V>
1014.88

>  <vsurf_W1>
1712.25

>  <vsurf_W2>
1114.13

>  <vsurf_W3>
617.5

>  <vsurf_W4>
241.25

>  <vsurf_W5>
88

>  <vsurf_W6>
26.5

>  <vsurf_W7>
3.875

>  <vsurf_W8>
0.875

>  <vsurf_Wp1>
1227.75

>  <vsurf_Wp2>
528.5

>  <vsurf_Wp3>
135.5

>  <vsurf_Wp4>
27.125

>  <vsurf_Wp5>
10.125

>  <vsurf_Wp6>
2.25

>  <vsurf_Wp7>
0

>  <vsurf_Wp8>
0

>  <dens>
1.09452

>  <glob>
0.100358

>  <std_dim1>
4.65303

>  <std_dim2>
2.44249

>  <std_dim3>
1.47405

>  <vol>
439

>  <logP(o/w)>
1.449

$$$$
D10.cdx
  MOE2008           3D

 60 64  0  0  0  0  0  0  0  0999 V2000
   -3.2260   -5.6170   -1.7300 C   0  0  0  0  0  0  0  0  0  0  0  0
   -3.7980   -5.1090   -2.5030 H   0  0  0  0  0  0  0  0  0  0  0  0
   -3.8710   -6.1590   -0.6210 C   0  0  0  0  0  0  0  0  0  0  0  0
   -4.9480   -6.0360   -0.5340 H   0  0  0  0  0  0  0  0  0  0  0  0
   -3.1490   -6.8270    0.3790 C   0  0  0  0  0  0  0  0  0  0  0  0
   -1.7470   -6.8600    0.2440 C   0  0  0  0  0  0  0  0  0  0  0  0
   -1.0650   -6.3270   -0.8550 C   0  0  0  0  0  0  0  0  0  0  0  0
   -1.8370   -5.7040   -1.8580 C   0  0  0  0  0  0  0  0  0  0  0  0
   -0.7990   -7.3760    1.0990 N   0  0  0  0  0  0  0  0  0  0  0  0
   -1.0180   -7.7980    1.9940 H   0  0  0  0  0  0  0  0  0  0  0  0
    0.4510   -7.2250    0.5670 C   0  0  0  0  0  0  0  0  0  0  0  0
    1.3140   -7.5960    1.1050 H   0  0  0  0  0  0  0  0  0  0  0  0
    0.3370   -6.5750   -0.6500 C   0  0  0  0  0  0  0  0  0  0  0  0
    1.4580   -6.2210   -1.5150 C   0  0  0  0  0  0  0  0  0  0  0  0
    2.8760   -6.5970   -1.1150 C   0  0  0  0  0  0  0  0  0  0  0  0
    3.7100   -5.5600   -0.7000 N   0  0  0  0  0  0  0  0  0  0  0  0
    5.1010   -5.8540   -0.3570 C   0  0  0  0  0  0  0  0  0  0  0  0
    5.1240   -6.0560    0.7210 H   0  0  0  0  0  0  0  0  0  0  0  0
    5.4320   -6.7640   -0.8690 H   0  0  0  0  0  0  0  0  0  0  0  0
    6.0320   -4.6870   -0.6970 C   0  0  0  0  0  0  0  0  0  0  0  0
    6.0320   -4.5240   -1.7800 H   0  0  0  0  0  0  0  0  0  0  0  0
    7.0550   -4.9220   -0.3850 H   0  0  0  0  0  0  0  0  0  0  0  0
    5.6020   -3.4250   -0.0740 N   0  0  0  0  0  0  0  0  0  0  0  0
    4.1910   -3.3260    0.3100 C   0  0  0  0  0  0  0  0  0  0  0  0
    4.1240   -3.6830    1.3450 H   0  0  0  0  0  0  0  0  0  0  0  0
    3.8720   -2.2790    0.3030 H   0  0  0  0  0  0  0  0  0  0  0  0
    3.2760   -4.1610   -0.5920 C   0  0  0  0  0  0  0  0  0  0  0  0
    3.2820   -3.7520   -1.6090 H   0  0  0  0  0  0  0  0  0  0  0  0
    2.2470   -4.1210   -0.2200 H   0  0  0  0  0  0  0  0  0  0  0  0
    6.4400   -2.3450    0.1980 C   0  0  0  0  0  0  0  0  0  0  0  0
    7.8250   -2.3700   -0.3240 C   0  0  0  0  0  0  0  0  0  0  0  0
    1.3320   -5.6110   -2.5720 O   0  0  0  0  0  0  0  0  0  0  0  0
    3.1880   -7.7810   -1.1770 O   0  0  0  0  0  0  0  0  0  0  0  0
    6.1050   -1.3650    0.8580 O   0  0  0  0  0  0  0  0  0  0  0  0
   -1.2760   -5.1610   -2.9470 F   0  0  0  0  0  0  0  0  0  0  0  0
    8.0640   -2.4330   -1.7010 C   0  0  0  0  0  0  0  0  0  0  0  0
    7.2390   -2.4720   -2.4070 H   0  0  0  0  0  0  0  0  0  0  0  0
    9.3770   -2.4330   -2.1710 C   0  0  0  0  0  0  0  0  0  0  0  0
    9.5720   -2.4880   -3.2390 H   0  0  0  0  0  0  0  0  0  0  0  0
   10.4420   -2.3520   -1.2710 C   0  0  0  0  0  0  0  0  0  0  0  0
   11.4640   -2.3470   -1.6400 H   0  0  0  0  0  0  0  0  0  0  0  0
   10.1980   -2.2620    0.1010 C   0  0  0  0  0  0  0  0  0  0  0  0
   11.0300   -2.1860    0.7960 H   0  0  0  0  0  0  0  0  0  0  0  0
    8.8870   -2.2650    0.5780 C   0  0  0  0  0  0  0  0  0  0  0  0
    8.6970   -2.1830    1.6460 H   0  0  0  0  0  0  0  0  0  0  0  0
   -3.8210   -7.3950    1.5740 C   0  0  0  0  0  0  0  0  0  0  0  0
   -4.9500   -8.1640    1.4490 N   0  0  0  0  0  0  0  0  0  0  0  0
   -5.3700   -8.4260    2.3340 H   0  0  0  0  0  0  0  0  0  0  0  0
   -3.3020   -7.2010    2.6700 O   0  0  0  0  0  0  0  0  0  0  0  0
   -5.5920   -8.6620    0.2460 C   0  0  0  0  0  0  0  0  0  0  0  0
   -6.3290   -7.9210   -0.0770 H   0  0  0  0  0  0  0  0  0  0  0  0
   -4.8510   -8.7980   -0.5470 H   0  0  0  0  0  0  0  0  0  0  0  0
   -6.2560   -9.9480    0.5620 C   0  0  0  0  0  0  0  0  0  0  0  0
   -7.4320   -9.8760    1.2510 O   0  0  0  0  0  0  0  0  0  0  0  0
   -7.8600  -11.1520    1.4340 C   0  0  0  0  0  0  0  0  0  0  0  0
   -8.7930  -11.2590    1.9690 H   0  0  0  0  0  0  0  0  0  0  0  0
   -6.9750  -12.0430    0.8750 C   0  0  0  0  0  0  0  0  0  0  0  0
   -7.0680  -13.1200    0.8760 H   0  0  0  0  0  0  0  0  0  0  0  0
   -5.9340  -11.2660    0.3110 C   0  0  0  0  0  0  0  0  0  0  0  0
   -5.0570  -11.6210   -0.2120 H   0  0  0  0  0  0  0  0  0  0  0  0
  1  2  1  0  0  0  0
  1  3  1  0  0  0  0
  1  8  2  0  0  0  0
  3  4  1  0  0  0  0
  3  5  2  0  0  0  0
  5  6  1  0  0  0  0
  5 46  1  0  0  0  0
  6  7  2  0  0  0  0
  6  9  1  0  0  0  0
  7  8  1  0  0  0  0
  7 13  1  0  0  0  0
  8 35  1  0  0  0  0
  9 10  1  0  0  0  0
  9 11  1  0  0  0  0
 11 12  1  0  0  0  0
 11 13  2  0  0  0  0
 13 14  1  0  0  0  0
 14 15  1  0  0  0  0
 14 32  2  0  0  0  0
 15 16  1  0  0  0  0
 15 33  2  0  0  0  0
 16 17  1  0  0  0  0
 16 27  1  0  0  0  0
 17 18  1  0  0  0  0
 17 19  1  0  0  0  0
 17 20  1  0  0  0  0
 20 21  1  0  0  0  0
 20 22  1  0  0  0  0
 20 23  1  0  0  0  0
 23 24  1  0  0  0  0
 23 30  1  0  0  0  0
 24 25  1  0  0  0  0
 24 26  1  0  0  0  0
 24 27  1  0  0  0  0
 27 28  1  0  0  0  0
 27 29  1  0  0  0  0
 30 31  1  0  0  0  0
 30 34  2  0  0  0  0
 31 36  1  0  0  0  0
 31 44  2  0  0  0  0
 36 37  1  0  0  0  0
 36 38  2  0  0  0  0
 38 39  1  0  0  0  0
 38 40  1  0  0  0  0
 40 41  1  0  0  0  0
 40 42  2  0  0  0  0
 42 43  1  0  0  0  0
 42 44  1  0  0  0  0
 44 45  1  0  0  0  0
 46 47  1  0  0  0  0
 46 49  2  0  0  0  0
 47 48  1  0  0  0  0
 47 50  1  0  0  0  0
 50 51  1  0  0  0  0
 50 52  1  0  0  0  0
 50 53  1  0  0  0  0
 53 54  1  0  0  0  0
 53 59  2  0  0  0  0
 54 55  1  0  0  0  0
 55 56  1  0  0  0  0
 55 57  2  0  0  0  0
 57 58  1  0  0  0  0
 57 59  1  0  0  0  0
 59 60  1  0  0  0  0
M  END
>  <Activity>
8.886

>  <AM1_dipole>
4.07614

>  <AM1_E>
-154155

>  <AM1_Eele>
-1.23709e+006

>  <AM1_HF>
-65.8217

>  <AM1_HOMO>
-9.07667

>  <AM1_IP>
9.07667

>  <AM1_LUMO>
-0.9544

>  <diameter>
20

>  <petitjean>
0.5

>  <petitjeanSC>
1

>  <radius>
10

>  <VDistEq>
4.04392

>  <VDistMa>
10.0995

>  <weinerPath>
4899

>  <weinerPol>
61

>  <BCUT_PEOE_0>
-2.71188

>  <BCUT_PEOE_1>
-0.621929

>  <BCUT_PEOE_2>
0.645627

>  <BCUT_PEOE_3>
2.65031

>  <BCUT_SLOGP_0>
-2.86001

>  <BCUT_SLOGP_1>
-0.510756

>  <BCUT_SLOGP_2>
0.769227

>  <BCUT_SLOGP_3>
2.50338

>  <BCUT_SMR_0>
-2.43203

>  <BCUT_SMR_1>
-0.439349

>  <BCUT_SMR_2>
0.811723

>  <BCUT_SMR_3>
2.92027

>  <GCUT_PEOE_0>
-0.858131

>  <GCUT_PEOE_1>
-0.419296

>  <GCUT_PEOE_2>
0.0895851

>  <GCUT_PEOE_3>
2.72966

>  <GCUT_SLOGP_0>
-1.13064

>  <GCUT_SLOGP_1>
-0.31409

>  <GCUT_SLOGP_2>
0.183426

>  <GCUT_SLOGP_3>
2.7196

>  <GCUT_SMR_0>
-0.508925

>  <GCUT_SMR_1>
-0.214562

>  <GCUT_SMR_2>
0.206682

>  <GCUT_SMR_3>
3.00151

>  <a_aro>
20

>  <a_count>
60

>  <a_IC>
102.38

>  <a_ICM>
1.70633

>  <a_nH>
23

>  <b_1rotN>
8

>  <b_1rotR>
0.195122

>  <b_ar>
21

>  <b_count>
64

>  <b_double>
4

>  <b_rotN>
9

>  <b_rotR>
0.219512

>  <b_single>
39

>  <b_triple>
0

>  <chi0v>
19.7

>  <chi0v_C>
15.3864

>  <chi1v>
11.7186

>  <chi1v_C>
7.41894

>  <chiral>
0

>  <chiral_u>
0

>  <nmol>
1

>  <reactive>
0

>  <rings>
5

>  <Weight>
502.502

>  <a_heavy>
37

>  <a_nB>
0

>  <a_nBr>
0

>  <a_nC>
27

>  <a_nCl>
0

>  <a_nF>
1

>  <a_nI>
0

>  <a_nN>
4

>  <a_nO>
5

>  <a_nP>
0

>  <a_nS>
0

>  <b_heavy>
41

>  <chi0>
25.9406

>  <chi0_C>
17.6646

>  <chi1>
17.9356

>  <chi1_C>
10.0244

>  <FCharge>
0

>  <VAdjEq>
0.327039

>  <VAdjMa>
6.35755

>  <zagreb>
198

>  <balabanJ>
1.13325

>  <PEOE_PC+>
3.51729

>  <PEOE_PC->
-3.51729

>  <PEOE_RPC+>
0.0838999

>  <PEOE_RPC->
0.132494

>  <PEOE_VSA+0>
73.9323

>  <PEOE_VSA+1>
128.122

>  <PEOE_VSA+2>
21.7448

>  <PEOE_VSA+3>
17.238

>  <PEOE_VSA+4>
0

>  <PEOE_VSA+5>
47.3071

>  <PEOE_VSA+6>
0

>  <PEOE_VSA-0>
73.5294

>  <PEOE_VSA-1>
36.7647

>  <PEOE_VSA-2>
0

>  <PEOE_VSA-3>
0

>  <PEOE_VSA-4>
11.9086

>  <PEOE_VSA-5>
54.2677

>  <PEOE_VSA-6>
2.77754

>  <PEOE_VSA_FHYD>
0.751362

>  <PEOE_VSA_FNEG>
0.383343

>  <PEOE_VSA_FPNEG>
0.147466

>  <PEOE_VSA_FPOL>
0.248638

>  <PEOE_VSA_FPOS>
0.616657

>  <PEOE_VSA_FPPOS>
0.101172

>  <PEOE_VSA_HYD>
351.331

>  <PEOE_VSA_NEG>
179.248

>  <PEOE_VSA_PNEG>
68.9539

>  <PEOE_VSA_POL>
116.261

>  <PEOE_VSA_POS>
288.344

>  <PEOE_VSA_PPOS>
47.3071

>  <PC+>
6.739

>  <PC->
-6.74

>  <Q_PC+>
6.739

>  <Q_PC->
-6.74

>  <Q_RPC+>
0.0973438

>  <Q_RPC->
0.108309

>  <Q_VSA_FHYD>
0.563378

>  <Q_VSA_FNEG>
0.495579

>  <Q_VSA_FPNEG>
0.157518

>  <Q_VSA_FPOL>
0.436622

>  <Q_VSA_FPOS>
0.504421

>  <Q_VSA_FPPOS>
0.279104

>  <Q_VSA_HYD>
263.431

>  <Q_VSA_NEG>
231.729

>  <Q_VSA_PNEG>
73.6542

>  <Q_VSA_POL>
204.161

>  <Q_VSA_POS>
235.863

>  <Q_VSA_PPOS>
130.507

>  <RPC+>
0.0973438

>  <RPC->
0.108309

>  <lip_acc>
9

>  <lip_don>
2

>  <lip_druglike>
1

>  <lip_violation>
1

>  <opr_brigid>
27

>  <opr_leadlike>
0

>  <opr_nring>
5

>  <opr_nrot>
8

>  <opr_violation>
3

>  <E>
103.92

>  <E_ang>
12.7597

>  <E_ele>
23.4778

>  <E_nb>
75.2774

>  <E_oop>
0.145513

>  <E_sol>
-27.4212

>  <E_stb>
0.668764

>  <E_str>
6.60683

>  <E_strain>
0.00600724

>  <E_tor>
8.46211

>  <E_vdw>
51.7996

>  <E_rele>
0

>  <E_rnb>
0

>  <E_rsol>
0

>  <E_rvdw>
0

>  <Kier1>
28.5259

>  <Kier2>
13.1094

>  <Kier3>
6.5025

>  <KierA1>
19.5866

>  <KierA2>
8.89957

>  <KierA3>
4.37826

>  <KierFlex>
4.71115

>  <logS>
-5.99017

>  <MNDO_dipole>
3.80224

>  <MNDO_E>
-154353

>  <MNDO_Eele>
-1.22729e+006

>  <MNDO_HF>
-99.308

>  <MNDO_HOMO>
-9.14141

>  <MNDO_IP>
9.14141

>  <MNDO_LUMO>
-0.94436

>  <apol>
71.8232

>  <bpol>
37.3748

>  <mr>
13.493

>  <dipole>
0.961463

>  <dipoleX>
-0.195617

>  <dipoleY>
-0.935702

>  <dipoleZ>
-0.102985

>  <pmi>
19130.4

>  <pmiX>
14464.8

>  <pmiY>
3797.18

>  <pmiZ>
868.441

>  <rgyr>
6.17011

>  <a_acc>
4

>  <a_acid>
0

>  <a_base>
0

>  <a_don>
2

>  <a_hyd>
22

>  <vsa_acc>
54.2677

>  <vsa_acid>
0

>  <vsa_base>
0

>  <vsa_don>
11.3652

>  <vsa_hyd>
300.537

>  <vsa_other>
80.3279

>  <vsa_pol>
65.6328

>  <PM3_dipole>
4.07462

>  <PM3_E>
-140873

>  <PM3_Eele>
-1.21364e+006

>  <PM3_HF>
-111.926

>  <PM3_HOMO>
-9.0752

>  <PM3_IP>
9.0752

>  <PM3_LUMO>
-1.00599

>  <SlogP>
3.2637

>  <SlogP_VSA0>
18.0107

>  <SlogP_VSA1>
27.7126

>  <SlogP_VSA2>
49.7688

>  <SlogP_VSA3>
73.7583

>  <SlogP_VSA4>
86.5922

>  <SlogP_VSA5>
9.50735

>  <SlogP_VSA6>
0

>  <SlogP_VSA7>
200.627

>  <SlogP_VSA8>
0

>  <SlogP_VSA9>
33.3997

>  <SMR>
13.1596

>  <SMR_VSA0>
104.956

>  <SMR_VSA1>
21.2087

>  <SMR_VSA2>
43.9173

>  <SMR_VSA3>
15.0055

>  <SMR_VSA4>
4.7171

>  <SMR_VSA5>
214.349

>  <SMR_VSA6>
95.2223

>  <SMR_VSA7>
0

>  <ASA>
795.992

>  <ASA+>
317.807

>  <ASA->
347.787

>  <ASA_H>
583.845

>  <ASA_P>
212.147

>  <CASA+>
2141.7

>  <CASA->
2344.09

>  <DASA>
29.9799

>  <DCASA>
202.382

>  <FASA+>
0.399259

>  <FASA->
0.436923

>  <FASA_H>
0.733481

>  <FASA_P>
0.266519

>  <FCASA+>
2.69061

>  <FCASA->
2.94486

>  <VSA>
495.699

>  <TPSA>
115.72

>  <density>
0.787884

>  <vdw_area>
467.592

>  <vdw_vol>
637.787

>  <vsurf_A>
1.98136

>  <vsurf_CP>
0.0708465

>  <vsurf_CW1>
2.60562

>  <vsurf_CW2>
2.06352

>  <vsurf_CW3>
1.33917

>  <vsurf_CW4>
0.695584

>  <vsurf_CW5>
0.325119

>  <vsurf_CW6>
0.12572

>  <vsurf_CW7>
0.0271649

>  <vsurf_CW8>
0.00546661

>  <vsurf_D1>
1075.88

>  <vsurf_D2>
630.5

>  <vsurf_D3>
473.25

>  <vsurf_D4>
404.875

>  <vsurf_D5>
347.875

>  <vsurf_D6>
279.625

>  <vsurf_D7>
159

>  <vsurf_D8>
91.125

>  <vsurf_DD12>
0.5

>  <vsurf_DD13>
0.5

>  <vsurf_DD23>
0.707107

>  <vsurf_DW12>
0.5

>  <vsurf_DW13>
0.5

>  <vsurf_DW23>
0.707107

>  <vsurf_EDmin1>
-2.87069

>  <vsurf_EDmin2>
-2.84525

>  <vsurf_EDmin3>
-2.82248

>  <vsurf_EWmin1>
-6.72436

>  <vsurf_EWmin2>
-6.65015

>  <vsurf_EWmin3>
-6.57845

>  <vsurf_G>
1.45387

>  <vsurf_HB1>
379.625

>  <vsurf_HB2>
459.375

>  <vsurf_HB3>
424.625

>  <vsurf_HB4>
186.875

>  <vsurf_HB5>
72.25

>  <vsurf_HB6>
25.25

>  <vsurf_HB7>
5.875

>  <vsurf_HB8>
1

>  <vsurf_HL1>
0.17327

>  <vsurf_HL2>
0.0673047

>  <vsurf_ID1>
0.421303

>  <vsurf_ID2>
0.368061

>  <vsurf_ID3>
0.51722

>  <vsurf_ID4>
0.662767

>  <vsurf_ID5>
0.767408

>  <vsurf_ID6>
0.822701

>  <vsurf_ID7>
0.50285

>  <vsurf_ID8>
0.108767

>  <vsurf_IW1>
0.256379

>  <vsurf_IW2>
0.44467

>  <vsurf_IW3>
0.679544

>  <vsurf_IW4>
0.974499

>  <vsurf_IW5>
1.78247

>  <vsurf_IW6>
2.78849

>  <vsurf_IW7>
6.33041

>  <vsurf_IW8>
8.05252

>  <vsurf_R>
1.44785

>  <vsurf_S>
728.581

>  <vsurf_V>
1054.88

>  <vsurf_W1>
1737

>  <vsurf_W2>
1051.75

>  <vsurf_W3>
559.75

>  <vsurf_W4>
213

>  <vsurf_W5>
82

>  <vsurf_W6>
27.25

>  <vsurf_W7>
5.875

>  <vsurf_W8>
1

>  <vsurf_Wp1>
1357.38

>  <vsurf_Wp2>
592.375

>  <vsurf_Wp3>
135.125

>  <vsurf_Wp4>
26.125

>  <vsurf_Wp5>
9.75

>  <vsurf_Wp6>
2

>  <vsurf_Wp7>
0

>  <vsurf_Wp8>
0

>  <dens>
1.10228

>  <glob>
0.0353846

>  <std_dim1>
6.3097

>  <std_dim2>
1.38545

>  <std_dim3>
1.1869

>  <vol>
455.875

>  <logP(o/w)>
2.034

$$$$
D10.cdx
  MOE2008           3D

 60 64  0  0  0  0  0  0  0  0999 V2000
   -3.6840   -9.9450   -0.7530 C   0  0  0  0  0  0  0  0  0  0  0  0
   -4.4980   -9.2250   -0.7920 H   0  0  0  0  0  0  0  0  0  0  0  0
   -3.9280  -11.2570   -0.3530 C   0  0  0  0  0  0  0  0  0  0  0  0
   -4.9500  -11.5420   -0.1240 H   0  0  0  0  0  0  0  0  0  0  0  0
   -2.8920  -12.2000   -0.2820 C   0  0  0  0  0  0  0  0  0  0  0  0
   -1.6190  -11.7770   -0.7210 C   0  0  0  0  0  0  0  0  0  0  0  0
   -1.3370  -10.4700   -1.1340 C   0  0  0  0  0  0  0  0  0  0  0  0
   -2.4000   -9.5430   -1.1280 C   0  0  0  0  0  0  0  0  0  0  0  0
   -0.4560  -12.5020   -0.8590 N   0  0  0  0  0  0  0  0  0  0  0  0
   -0.3880  -13.4950   -0.6620 H   0  0  0  0  0  0  0  0  0  0  0  0
    0.5580  -11.6970   -1.2990 C   0  0  0  0  0  0  0  0  0  0  0  0
    1.5470  -12.1110   -1.4530 H   0  0  0  0  0  0  0  0  0  0  0  0
    0.0570  -10.4210   -1.4880 C   0  0  0  0  0  0  0  0  0  0  0  0
    0.8350   -9.2790   -1.9590 C   0  0  0  0  0  0  0  0  0  0  0  0
    2.2720   -9.4690   -2.4220 C   0  0  0  0  0  0  0  0  0  0  0  0
    3.2730   -9.0360   -1.5550 N   0  0  0  0  0  0  0  0  0  0  0  0
    4.6720   -9.1440   -1.9690 C   0  0  0  0  0  0  0  0  0  0  0  0
    5.0330  -10.1150   -1.6100 H   0  0  0  0  0  0  0  0  0  0  0  0
    4.7430   -9.1480   -3.0610 H   0  0  0  0  0  0  0  0  0  0  0  0
    5.5290   -8.0150   -1.3870 C   0  0  0  0  0  0  0  0  0  0  0  0
    5.1840   -7.0540   -1.7870 H   0  0  0  0  0  0  0  0  0  0  0  0
    6.5750   -8.1520   -1.6780 H   0  0  0  0  0  0  0  0  0  0  0  0
    5.4270   -7.9300    0.0780 N   0  0  0  0  0  0  0  0  0  0  0  0
    4.2320   -8.5150    0.6920 C   0  0  0  0  0  0  0  0  0  0  0  0
    4.4800   -9.5590    0.9230 H   0  0  0  0  0  0  0  0  0  0  0  0
    4.0110   -8.0130    1.6400 H   0  0  0  0  0  0  0  0  0  0  0  0
    3.0100   -8.4600   -0.2300 C   0  0  0  0  0  0  0  0  0  0  0  0
    2.7150   -7.4170   -0.3960 H   0  0  0  0  0  0  0  0  0  0  0  0
    2.1670   -8.9750    0.2380 H   0  0  0  0  0  0  0  0  0  0  0  0
    6.3910   -7.3650    0.9130 C   0  0  0  0  0  0  0  0  0  0  0  0
    7.5230   -6.6350    0.3000 C   0  0  0  0  0  0  0  0  0  0  0  0
    0.4030   -8.1300   -1.9900 O   0  0  0  0  0  0  0  0  0  0  0  0
    2.4560   -9.9840   -3.5190 O   0  0  0  0  0  0  0  0  0  0  0  0
    6.3670   -7.4430    2.1380 O   0  0  0  0  0  0  0  0  0  0  0  0
   -2.2310   -8.2700   -1.5080 F   0  0  0  0  0  0  0  0  0  0  0  0
    8.8260   -7.0570    0.5790 C   0  0  0  0  0  0  0  0  0  0  0  0
    9.0020   -7.9160    1.2210 H   0  0  0  0  0  0  0  0  0  0  0  0
    9.9060   -6.3660    0.0280 C   0  0  0  0  0  0  0  0  0  0  0  0
   10.9220   -6.6900    0.2370 H   0  0  0  0  0  0  0  0  0  0  0  0
    9.6810   -5.2530   -0.7850 C   0  0  0  0  0  0  0  0  0  0  0  0
   10.5250   -4.7150   -1.2110 H   0  0  0  0  0  0  0  0  0  0  0  0
    8.3790   -4.8210   -1.0430 C   0  0  0  0  0  0  0  0  0  0  0  0
    8.2100   -3.9460   -1.6650 H   0  0  0  0  0  0  0  0  0  0  0  0
    7.2950   -5.5060   -0.4940 C   0  0  0  0  0  0  0  0  0  0  0  0
    6.2840   -5.1510   -0.6770 H   0  0  0  0  0  0  0  0  0  0  0  0
   -3.1380  -13.6080    0.1230 C   0  0  0  0  0  0  0  0  0  0  0  0
   -3.9190  -13.9300    1.2060 N   0  0  0  0  0  0  0  0  0  0  0  0
   -4.0530  -14.9290    1.3130 H   0  0  0  0  0  0  0  0  0  0  0  0
   -2.5620  -14.4920   -0.5090 O   0  0  0  0  0  0  0  0  0  0  0  0
   -4.5240  -13.0830    2.2200 C   0  0  0  0  0  0  0  0  0  0  0  0
   -4.3520  -13.5790    3.1830 H   0  0  0  0  0  0  0  0  0  0  0  0
   -4.0130  -12.1170    2.2490 H   0  0  0  0  0  0  0  0  0  0  0  0
   -5.9980  -12.9450    1.9960 C   0  0  0  0  0  0  0  0  0  0  0  0
   -6.8110  -11.5770    2.6450 S   0  0  0  0  0  0  0  0  0  0  0  0
   -8.3190  -12.0960    2.0330 C   0  0  0  0  0  0  0  0  0  0  0  0
   -9.2080  -11.5030    2.2010 H   0  0  0  0  0  0  0  0  0  0  0  0
   -8.2190  -13.2900    1.3580 C   0  0  0  0  0  0  0  0  0  0  0  0
   -9.0640  -13.7890    0.9000 H   0  0  0  0  0  0  0  0  0  0  0  0
   -6.8810  -13.7830    1.3400 C   0  0  0  0  0  0  0  0  0  0  0  0
   -6.5890  -14.7100    0.8620 H   0  0  0  0  0  0  0  0  0  0  0  0
  1  2  1  0  0  0  0
  1  3  1  0  0  0  0
  1  8  2  0  0  0  0
  3  4  1  0  0  0  0
  3  5  2  0  0  0  0
  5  6  1  0  0  0  0
  5 46  1  0  0  0  0
  6  7  2  0  0  0  0
  6  9  1  0  0  0  0
  7  8  1  0  0  0  0
  7 13  1  0  0  0  0
  8 35  1  0  0  0  0
  9 10  1  0  0  0  0
  9 11  1  0  0  0  0
 11 12  1  0  0  0  0
 11 13  2  0  0  0  0
 13 14  1  0  0  0  0
 14 15  1  0  0  0  0
 14 32  2  0  0  0  0
 15 16  1  0  0  0  0
 15 33  2  0  0  0  0
 16 17  1  0  0  0  0
 16 27  1  0  0  0  0
 17 18  1  0  0  0  0
 17 19  1  0  0  0  0
 17 20  1  0  0  0  0
 20 21  1  0  0  0  0
 20 22  1  0  0  0  0
 20 23  1  0  0  0  0
 23 24  1  0  0  0  0
 23 30  1  0  0  0  0
 24 25  1  0  0  0  0
 24 26  1  0  0  0  0
 24 27  1  0  0  0  0
 27 28  1  0  0  0  0
 27 29  1  0  0  0  0
 30 31  1  0  0  0  0
 30 34  2  0  0  0  0
 31 36  1  0  0  0  0
 31 44  2  0  0  0  0
 36 37  1  0  0  0  0
 36 38  2  0  0  0  0
 38 39  1  0  0  0  0
 38 40  1  0  0  0  0
 40 41  1  0  0  0  0
 40 42  2  0  0  0  0
 42 43  1  0  0  0  0
 42 44  1  0  0  0  0
 44 45  1  0  0  0  0
 46 47  1  0  0  0  0
 46 49  2  0  0  0  0
 47 48  1  0  0  0  0
 47 50  1  0  0  0  0
 50 51  1  0  0  0  0
 50 52  1  0  0  0  0
 50 53  1  0  0  0  0
 53 54  1  0  0  0  0
 53 59  2  0  0  0  0
 54 55  1  0  0  0  0
 55 56  1  0  0  0  0
 55 57  2  0  0  0  0
 57 58  1  0  0  0  0
 57 59  1  0  0  0  0
 59 60  1  0  0  0  0
M  END
>  <Activity>
8.9746

>  <AM1_dipole>
3.34203

>  <AM1_E>
-151270

>  <AM1_Eele>
-1.23551e+006

>  <AM1_HF>
-39.6008

>  <AM1_HOMO>
-9.01324

>  <AM1_IP>
9.01324

>  <AM1_LUMO>
-0.88844

>  <diameter>
20

>  <petitjean>
0.5

>  <petitjeanSC>
1

>  <radius>
10

>  <VDistEq>
4.04392

>  <VDistMa>
10.0995

>  <weinerPath>
4899

>  <weinerPol>
61

>  <BCUT_PEOE_0>
-2.71188

>  <BCUT_PEOE_1>
-0.61976

>  <BCUT_PEOE_2>
0.644876

>  <BCUT_PEOE_3>
2.65031

>  <BCUT_SLOGP_0>
-2.86001

>  <BCUT_SLOGP_1>
-0.508055

>  <BCUT_SLOGP_2>
0.769273

>  <BCUT_SLOGP_3>
2.50339

>  <BCUT_SMR_0>
-2.43203

>  <BCUT_SMR_1>
-0.436312

>  <BCUT_SMR_2>
0.812127

>  <BCUT_SMR_3>
2.92027

>  <GCUT_PEOE_0>
-0.858394

>  <GCUT_PEOE_1>
-0.417143

>  <GCUT_PEOE_2>
0.0896047

>  <GCUT_PEOE_3>
2.72855

>  <GCUT_SLOGP_0>
-1.13063

>  <GCUT_SLOGP_1>
-0.31409

>  <GCUT_SLOGP_2>
0.18401

>  <GCUT_SLOGP_3>
2.72422

>  <GCUT_SMR_0>
-0.508923

>  <GCUT_SMR_1>
-0.214562

>  <GCUT_SMR_2>
0.206881

>  <GCUT_SMR_3>
3.0048

>  <a_aro>
20

>  <a_count>
60

>  <a_IC>
105.99

>  <a_ICM>
1.76649

>  <a_nH>
23

>  <b_1rotN>
8

>  <b_1rotR>
0.195122

>  <b_ar>
21

>  <b_count>
64

>  <b_double>
4

>  <b_rotN>
9

>  <b_rotR>
0.219512

>  <b_single>
39

>  <b_triple>
0

>  <chi0v>
20.5165

>  <chi0v_C>
15.3864

>  <chi1v>
12.5982

>  <chi1v_C>
7.41894

>  <chiral>
0

>  <chiral_u>
0

>  <nmol>
1

>  <reactive>
0

>  <rings>
5

>  <Weight>
518.569

>  <a_heavy>
37

>  <a_nB>
0

>  <a_nBr>
0

>  <a_nC>
27

>  <a_nCl>
0

>  <a_nF>
1

>  <a_nI>
0

>  <a_nN>
4

>  <a_nO>
4

>  <a_nP>
0

>  <a_nS>
1

>  <b_heavy>
41

>  <chi0>
25.9406

>  <chi0_C>
17.6646

>  <chi1>
17.9356

>  <chi1_C>
10.0244

>  <FCharge>
0

>  <VAdjEq>
0.327039

>  <VAdjMa>
6.35755

>  <zagreb>
198

>  <balabanJ>
1.13325

>  <PEOE_PC+>
3.34611

>  <PEOE_PC->
-3.34611

>  <PEOE_RPC+>
0.0881922

>  <PEOE_RPC->
0.107374

>  <PEOE_VSA+0>
91.39

>  <PEOE_VSA+1>
96.4243

>  <PEOE_VSA+2>
9.02085

>  <PEOE_VSA+3>
36.9986

>  <PEOE_VSA+4>
0

>  <PEOE_VSA+5>
47.3071

>  <PEOE_VSA+6>
0

>  <PEOE_VSA-0>
49.0196

>  <PEOE_VSA-1>
65.4591

>  <PEOE_VSA-2>
14.231

>  <PEOE_VSA-3>
0

>  <PEOE_VSA-4>
11.9086

>  <PEOE_VSA-5>
54.2677

>  <PEOE_VSA-6>
0.273782

>  <PEOE_VSA_FHYD>
0.761165

>  <PEOE_VSA_FNEG>
0.409741

>  <PEOE_VSA_FPNEG>
0.139513

>  <PEOE_VSA_FPOL>
0.238835

>  <PEOE_VSA_FPOS>
0.590259

>  <PEOE_VSA_FPPOS>
0.0993219

>  <PEOE_VSA_HYD>
362.544

>  <PEOE_VSA_NEG>
195.16

>  <PEOE_VSA_PNEG>
66.4501

>  <PEOE_VSA_POL>
113.757

>  <PEOE_VSA_POS>
281.141

>  <PEOE_VSA_PPOS>
47.3071

>  <PC+>
6.739

>  <PC->
-6.74

>  <Q_PC+>
6.739

>  <Q_PC->
-6.74

>  <Q_RPC+>
0.0973438

>  <Q_RPC->
0.108309

>  <Q_VSA_FHYD>
0.576618

>  <Q_VSA_FNEG>
0.504802

>  <Q_VSA_FPNEG>
0.149381

>  <Q_VSA_FPOL>
0.423382

>  <Q_VSA_FPOS>
0.495198

>  <Q_VSA_FPPOS>
0.274001

>  <Q_VSA_HYD>
274.643

>  <Q_VSA_NEG>
240.438

>  <Q_VSA_PNEG>
71.1505

>  <Q_VSA_POL>
201.657

>  <Q_VSA_POS>
235.863

>  <Q_VSA_PPOS>
130.507

>  <RPC+>
0.0973438

>  <RPC->
0.108309

>  <lip_acc>
8

>  <lip_don>
2

>  <lip_druglike>
1

>  <lip_violation>
1

>  <opr_brigid>
27

>  <opr_leadlike>
0

>  <opr_nring>
5

>  <opr_nrot>
8

>  <opr_violation>
2

>  <E>
107.033

>  <E_ang>
17.0129

>  <E_ele>
21.6463

>  <E_nb>
74.1864

>  <E_oop>
0.235051

>  <E_sol>
-29.7249

>  <E_stb>
0.57509

>  <E_str>
7.02676

>  <E_strain>
0.00636807

>  <E_tor>
7.99721

>  <E_vdw>
52.5401

>  <E_rele>
0

>  <E_rnb>
-2.84217e-014

>  <E_rsol>
-2.84217e-014

>  <E_rvdw>
0

>  <Kier1>
28.5259

>  <Kier2>
13.1094

>  <Kier3>
6.5025

>  <KierA1>
20.5178

>  <KierA2>
9.3365

>  <KierA3>
4.59816

>  <KierFlex>
5.17741

>  <logS>
-6.04527

>  <MNDO_dipole>
3.20257

>  <MNDO_E>
-152204

>  <MNDO_Eele>
-1.2253e+006

>  <MNDO_HF>
-54.822

>  <MNDO_HOMO>
-9.1121

>  <MNDO_IP>
9.1121

>  <MNDO_LUMO>
-0.95671

>  <apol>
73.9212

>  <bpol>
37.7388

>  <mr>
14.0715

>  <dipole>
0.736004

>  <dipoleX>
-0.128986

>  <dipoleY>
-0.554188

>  <dipoleZ>
0.466841

>  <pmi>
19271.3

>  <pmiX>
14488.1

>  <pmiY>
3548.95

>  <pmiZ>
1234.25

>  <rgyr>
6.0961

>  <a_acc>
4

>  <a_acid>
0

>  <a_base>
0

>  <a_don>
2

>  <a_hyd>
25

>  <vsa_acc>
54.2677

>  <vsa_acid>
0

>  <vsa_base>
0

>  <vsa_don>
11.3652

>  <vsa_hyd>
342.266

>  <vsa_other>
47.3071

>  <vsa_pol>
65.6328

>  <PM3_dipole>
3.64843

>  <PM3_E>
-138402

>  <PM3_Eele>
-1.21239e+006

>  <PM3_HF>
-74.4316

>  <PM3_HOMO>
-9.03869

>  <PM3_IP>
9.03869

>  <PM3_LUMO>
-0.95754

>  <SlogP>
3.7322

>  <SlogP_VSA0>
18.0107

>  <SlogP_VSA1>
27.7126

>  <SlogP_VSA2>
49.7688

>  <SlogP_VSA3>
73.7583

>  <SlogP_VSA4>
82.5018

>  <SlogP_VSA5>
0

>  <SlogP_VSA6>
0

>  <SlogP_VSA7>
196.536

>  <SlogP_VSA8>
0

>  <SlogP_VSA9>
64.6774

>  <SMR>
13.7207

>  <SMR_VSA0>
95.4489

>  <SMR_VSA1>
21.2087

>  <SMR_VSA2>
43.9173

>  <SMR_VSA3>
10.9151

>  <SMR_VSA4>
4.7171

>  <SMR_VSA5>
210.259

>  <SMR_VSA6>
95.2223

>  <SMR_VSA7>
31.2777

>  <ASA>
795.97

>  <ASA+>
304.76

>  <ASA->
351.647

>  <ASA_H>
591.437

>  <ASA_P>
204.533

>  <CASA+>
2053.77

>  <CASA->
2370.1

>  <DASA>
46.8878

>  <DCASA>
316.329

>  <FASA+>
0.382878

>  <FASA->
0.441785

>  <FASA_H>
0.743039

>  <FASA_P>
0.256961

>  <FCASA+>
2.58022

>  <FCASA->
2.97763

>  <VSA>
505.695

>  <TPSA>
102.58

>  <density>
0.798402

>  <vdw_area>
476.301

>  <vdw_vol>
649.509

>  <vsurf_A>
2.58223

>  <vsurf_CP>
0.0756501

>  <vsurf_CW1>
2.62124

>  <vsurf_CW2>
2.15989

>  <vsurf_CW3>
1.41197

>  <vsurf_CW4>
0.658965

>  <vsurf_CW5>
0.318442

>  <vsurf_CW6>
0.129316

>  <vsurf_CW7>
0.0260886

>  <vsurf_CW8>
0.00736909

>  <vsurf_D1>
1100.63

>  <vsurf_D2>
651.375

>  <vsurf_D3>
481.875

>  <vsurf_D4>
402.875

>  <vsurf_D5>
349.375

>  <vsurf_D6>
282.375

>  <vsurf_D7>
174.875

>  <vsurf_D8>
97

>  <vsurf_DD12>
2.06155

>  <vsurf_DD13>
0.5

>  <vsurf_DD23>
1.58114

>  <vsurf_DW12>
0.5

>  <vsurf_DW13>
0.707107

>  <vsurf_DW23>
0.5

>  <vsurf_EDmin1>
-2.71548

>  <vsurf_EDmin2>
-2.68363

>  <vsurf_EDmin3>
-2.67509

>  <vsurf_EWmin1>
-6.81597

>  <vsurf_EWmin2>
-6.66692

>  <vsurf_EWmin3>
-6.45437

>  <vsurf_G>
1.43525

>  <vsurf_HB1>
385.5

>  <vsurf_HB2>
464.75

>  <vsurf_HB3>
422.375

>  <vsurf_HB4>
177.75

>  <vsurf_HB5>
70

>  <vsurf_HB6>
24.375

>  <vsurf_HB7>
6.375

>  <vsurf_HB8>
1.25

>  <vsurf_HL1>
0.16524

>  <vsurf_HL2>
0.0663978

>  <vsurf_ID1>
0.59791

>  <vsurf_ID2>
0.604131

>  <vsurf_ID3>
0.62348

>  <vsurf_ID4>
0.651437

>  <vsurf_ID5>
0.776884

>  <vsurf_ID6>
0.791167

>  <vsurf_ID7>
0.514335

>  <vsurf_ID8>
0.583702

>  <vsurf_IW1>
0.259

>  <vsurf_IW2>
0.40723

>  <vsurf_IW3>
0.691238

>  <vsurf_IW4>
1.38031

>  <vsurf_IW5>
2.09367

>  <vsurf_IW6>
2.89584

>  <vsurf_IW7>
5.86037

>  <vsurf_IW8>
8.14357

>  <vsurf_R>
1.47333

>  <vsurf_S>
725.823

>  <vsurf_V>
1069.38

>  <vsurf_W1>
1770.63

>  <vsurf_W2>
1082.75

>  <vsurf_W3>
561.125

>  <vsurf_W4>
204.25

>  <vsurf_W5>
79.625

>  <vsurf_W6>
26.75

>  <vsurf_W7>
6.375

>  <vsurf_W8>
1.25

>  <vsurf_Wp1>
1385.13

>  <vsurf_Wp2>
618

>  <vsurf_Wp3>
138.75

>  <vsurf_Wp4>
26.5

>  <vsurf_Wp5>
9.625

>  <vsurf_Wp6>
2.375

>  <vsurf_Wp7>
0

>  <vsurf_Wp8>
0

>  <dens>
1.11791

>  <glob>
0.0483142

>  <std_dim1>
6.1268

>  <std_dim2>
1.38774

>  <std_dim3>
1.3467

>  <vol>
463.875

>  <logP(o/w)>
2.849

$$$$
D10.cdx
  MOE2008           3D

 56 59  0  0  0  0  0  0  0  0999 V2000
   -3.7520  -14.0670    1.1470 C   0  0  0  0  0  0  0  0  0  0  0  0
   -4.6920  -13.5340    1.2720 H   0  0  0  0  0  0  0  0  0  0  0  0
   -3.7510  -15.4060    0.7610 C   0  0  0  0  0  0  0  0  0  0  0  0
   -4.7090  -15.8930    0.6190 H   0  0  0  0  0  0  0  0  0  0  0  0
   -2.5540  -16.1160    0.5810 C   0  0  0  0  0  0  0  0  0  0  0  0
   -1.3590  -15.4150    0.8730 C   0  0  0  0  0  0  0  0  0  0  0  0
   -1.3210  -14.0720    1.2630 C   0  0  0  0  0  0  0  0  0  0  0  0
   -2.5530  -13.3960    1.3880 C   0  0  0  0  0  0  0  0  0  0  0  0
   -0.0540  -15.8610    0.8590 N   0  0  0  0  0  0  0  0  0  0  0  0
    0.2090  -16.8120    0.6220 H   0  0  0  0  0  0  0  0  0  0  0  0
    0.8020  -14.8550    1.2130 C   0  0  0  0  0  0  0  0  0  0  0  0
    1.8680  -15.0410    1.2500 H   0  0  0  0  0  0  0  0  0  0  0  0
    0.0600  -13.7140    1.4580 C   0  0  0  0  0  0  0  0  0  0  0  0
    0.6090  -12.4160    1.8370 C   0  0  0  0  0  0  0  0  0  0  0  0
    2.0680  -12.2770    2.2530 C   0  0  0  0  0  0  0  0  0  0  0  0
    2.9840  -11.9410    1.2560 N   0  0  0  0  0  0  0  0  0  0  0  0
    4.4050  -11.8330    1.5910 C   0  0  0  0  0  0  0  0  0  0  0  0
    4.5970  -10.7760    1.8110 H   0  0  0  0  0  0  0  0  0  0  0  0
    4.6260  -12.4040    2.4990 H   0  0  0  0  0  0  0  0  0  0  0  0
    5.2980  -12.3040    0.4400 C   0  0  0  0  0  0  0  0  0  0  0  0
    5.1320  -13.3730    0.2640 H   0  0  0  0  0  0  0  0  0  0  0  0
    6.3520  -12.1600    0.7010 H   0  0  0  0  0  0  0  0  0  0  0  0
    5.0040  -11.6140   -0.8250 N   0  0  0  0  0  0  0  0  0  0  0  0
    3.6960  -10.9610   -0.9330 C   0  0  0  0  0  0  0  0  0  0  0  0
    3.8230   -9.9430   -0.5440 H   0  0  0  0  0  0  0  0  0  0  0  0
    3.4000  -10.8740   -1.9840 H   0  0  0  0  0  0  0  0  0  0  0  0
    2.6070  -11.6900   -0.1410 C   0  0  0  0  0  0  0  0  0  0  0  0
    2.4130  -12.6700   -0.5930 H   0  0  0  0  0  0  0  0  0  0  0  0
    1.6750  -11.1180   -0.1740 H   0  0  0  0  0  0  0  0  0  0  0  0
    5.8840  -11.5150   -1.9020 C   0  0  0  0  0  0  0  0  0  0  0  0
    7.1680  -12.2490   -1.8420 C   0  0  0  0  0  0  0  0  0  0  0  0
   -0.0550  -11.3840    1.8300 O   0  0  0  0  0  0  0  0  0  0  0  0
    2.3480  -12.4680    3.4320 O   0  0  0  0  0  0  0  0  0  0  0  0
    5.6710  -10.8400   -2.9050 O   0  0  0  0  0  0  0  0  0  0  0  0
   -2.6210  -12.1120    1.7670 F   0  0  0  0  0  0  0  0  0  0  0  0
    7.1890  -13.6470   -1.7920 C   0  0  0  0  0  0  0  0  0  0  0  0
    6.2630  -14.2170   -1.7890 H   0  0  0  0  0  0  0  0  0  0  0  0
    8.4130  -14.3140   -1.7620 C   0  0  0  0  0  0  0  0  0  0  0  0
    8.4420  -15.4000   -1.7220 H   0  0  0  0  0  0  0  0  0  0  0  0
    9.6060  -13.5890   -1.7970 C   0  0  0  0  0  0  0  0  0  0  0  0
   10.5590  -14.1120   -1.7780 H   0  0  0  0  0  0  0  0  0  0  0  0
    9.5800  -12.1940   -1.8700 C   0  0  0  0  0  0  0  0  0  0  0  0
   10.5120  -11.6350   -1.9100 H   0  0  0  0  0  0  0  0  0  0  0  0
    8.3600  -11.5200   -1.8990 C   0  0  0  0  0  0  0  0  0  0  0  0
    8.3390  -10.4360   -1.9680 H   0  0  0  0  0  0  0  0  0  0  0  0
   -2.5290  -17.5500    0.1850 C   0  0  0  0  0  0  0  0  0  0  0  0
   -3.6730  -18.1700   -0.3830 N   0  0  0  0  0  0  0  0  0  0  0  0
   -3.5160  -19.1810   -0.4460 H   0  0  0  0  0  0  0  0  0  0  0  0
   -1.5250  -18.2140    0.4120 O   0  0  0  0  0  0  0  0  0  0  0  0
   -4.4060  -17.6810   -1.8320 S   0  0  0  0  0  0  0  0  0  0  0  0
   -4.0360  -16.3200   -2.1440 O   0  0  0  0  0  0  0  0  0  0  0  0
   -4.1870  -18.7570   -2.7740 O   0  0  0  0  0  0  0  0  0  0  0  0
   -6.1230  -17.7080   -1.3670 C   0  0  0  0  0  0  0  0  0  0  0  0
   -6.3050  -16.9670   -0.5900 H   0  0  0  0  0  0  0  0  0  0  0  0
   -6.3800  -18.7110   -1.0200 H   0  0  0  0  0  0  0  0  0  0  0  0
   -6.7130  -17.4640   -2.2540 H   0  0  0  0  0  0  0  0  0  0  0  0
  1  2  1  0  0  0  0
  1  3  1  0  0  0  0
  1  8  2  0  0  0  0
  3  4  1  0  0  0  0
  3  5  2  0  0  0  0
  5  6  1  0  0  0  0
  5 46  1  0  0  0  0
  6  7  2  0  0  0  0
  6  9  1  0  0  0  0
  7  8  1  0  0  0  0
  7 13  1  0  0  0  0
  8 35  1  0  0  0  0
  9 10  1  0  0  0  0
  9 11  1  0  0  0  0
 11 12  1  0  0  0  0
 11 13  2  0  0  0  0
 13 14  1  0  0  0  0
 14 15  1  0  0  0  0
 14 32  2  0  0  0  0
 15 16  1  0  0  0  0
 15 33  2  0  0  0  0
 16 17  1  0  0  0  0
 16 27  1  0  0  0  0
 17 18  1  0  0  0  0
 17 19  1  0  0  0  0
 17 20  1  0  0  0  0
 20 21  1  0  0  0  0
 20 22  1  0  0  0  0
 20 23  1  0  0  0  0
 23 24  1  0  0  0  0
 23 30  1  0  0  0  0
 24 25  1  0  0  0  0
 24 26  1  0  0  0  0
 24 27  1  0  0  0  0
 27 28  1  0  0  0  0
 27 29  1  0  0  0  0
 30 31  1  0  0  0  0
 30 34  2  0  0  0  0
 31 36  1  0  0  0  0
 31 44  2  0  0  0  0
 36 37  1  0  0  0  0
 36 38  2  0  0  0  0
 38 39  1  0  0  0  0
 38 40  1  0  0  0  0
 40 41  1  0  0  0  0
 40 42  2  0  0  0  0
 42 43  1  0  0  0  0
 42 44  1  0  0  0  0
 44 45  1  0  0  0  0
 46 47  1  0  0  0  0
 46 49  2  0  0  0  0
 47 48  1  0  0  0  0
 47 50  1  0  0  0  0
 50 51  2  0  0  0  0
 50 52  2  0  0  0  0
 50 53  1  0  0  0  0
 53 54  1  0  0  0  0
 53 55  1  0  0  0  0
 53 56  1  0  0  0  0
M  END
>  <Activity>
8.5783

>  <AM1_dipole>
4.94266

>  <AM1_E>
-153603

>  <AM1_Eele>
-1.21133e+006

>  <AM1_HF>
-134.41

>  <AM1_HOMO>
-9.24251

>  <AM1_IP>
9.24251

>  <AM1_LUMO>
-1.29107

>  <diameter>
18

>  <petitjean>
0.5

>  <petitjeanSC>
1

>  <radius>
9

>  <VDistEq>
3.92734

>  <VDistMa>
9.94345

>  <weinerPath>
4090

>  <weinerPol>
59

>  <BCUT_PEOE_0>
-2.71188

>  <BCUT_PEOE_1>
-0.64395

>  <BCUT_PEOE_2>
0.593635

>  <BCUT_PEOE_3>
2.6503

>  <BCUT_SLOGP_0>
-2.86001

>  <BCUT_SLOGP_1>
-0.521564

>  <BCUT_SLOGP_2>
0.719666

>  <BCUT_SLOGP_3>
2.50336

>  <BCUT_SMR_0>
-2.43203

>  <BCUT_SMR_1>
-0.413325

>  <BCUT_SMR_2>
0.765148

>  <BCUT_SMR_3>
2.92028

>  <GCUT_PEOE_0>
-0.85878

>  <GCUT_PEOE_1>
-0.420495

>  <GCUT_PEOE_2>
0.0729118

>  <GCUT_PEOE_3>
2.71294

>  <GCUT_SLOGP_0>
-1.14267

>  <GCUT_SLOGP_1>
-0.401293

>  <GCUT_SLOGP_2>
0.155533

>  <GCUT_SLOGP_3>
2.69013

>  <GCUT_SMR_0>
-0.508916

>  <GCUT_SMR_1>
-0.202961

>  <GCUT_SMR_2>
0.192456

>  <GCUT_SMR_3>
2.99177

>  <a_aro>
15

>  <a_count>
56

>  <a_IC>
105.422

>  <a_ICM>
1.88253

>  <a_nH>
21

>  <b_1rotN>
7

>  <b_1rotR>
0.184211

>  <b_ar>
16

>  <b_count>
59

>  <b_double>
4

>  <b_rotN>
8

>  <b_rotR>
0.210526

>  <b_single>
39

>  <b_triple>
0

>  <chi0v>
19.3939

>  <chi0v_C>
13.4472

>  <chi1v>
12.4534

>  <chi1v_C>
6.11004

>  <chiral>
0

>  <chiral_u>
0

>  <nmol>
1

>  <reactive>
0

>  <rings>
4

>  <Weight>
500.507

>  <a_heavy>
35

>  <a_nB>
0

>  <a_nBr>
0

>  <a_nC>
23

>  <a_nCl>
0

>  <a_nF>
1

>  <a_nI>
0

>  <a_nN>
4

>  <a_nO>
6

>  <a_nP>
0

>  <a_nS>
1

>  <b_heavy>
38

>  <chi0>
25.3277

>  <chi0_C>
15.2588

>  <chi1>
16.5644

>  <chi1_C>
8.20791

>  <FCharge>
0

>  <VAdjEq>
0.335493

>  <VAdjMa>
6.24793

>  <zagreb>
188

>  <balabanJ>
1.33032

>  <PEOE_PC+>
3.38439

>  <PEOE_PC->
-3.38439

>  <PEOE_RPC+>
0.0871947

>  <PEOE_RPC->
0.162532

>  <PEOE_VSA+0>
76.1408

>  <PEOE_VSA+1>
90.1038

>  <PEOE_VSA+2>
40.5416

>  <PEOE_VSA+3>
8.61901

>  <PEOE_VSA+4>
20.7237

>  <PEOE_VSA+5>
34.3576

>  <PEOE_VSA+6>
0

>  <PEOE_VSA-0>
49.0196

>  <PEOE_VSA-1>
36.7647

>  <PEOE_VSA-2>
32.0165

>  <PEOE_VSA-3>
2.52952

>  <PEOE_VSA-4>
11.9086

>  <PEOE_VSA-5>
40.7008

>  <PEOE_VSA-6>
13.7038

>  <PEOE_VSA_FHYD>
0.734442

>  <PEOE_VSA_FNEG>
0.408294

>  <PEOE_VSA_FPNEG>
0.145064

>  <PEOE_VSA_FPOL>
0.265558

>  <PEOE_VSA_FPOS>
0.591706

>  <PEOE_VSA_FPPOS>
0.120494

>  <PEOE_VSA_HYD>
335.736

>  <PEOE_VSA_NEG>
186.644

>  <PEOE_VSA_PNEG>
66.3132

>  <PEOE_VSA_POL>
121.395

>  <PEOE_VSA_POS>
270.487

>  <PEOE_VSA_PPOS>
55.0813

>  <PC+>
7.473

>  <PC->
-7.474

>  <Q_PC+>
7.473

>  <Q_PC->
-7.474

>  <Q_RPC+>
0.178375

>  <Q_RPC->
0.106235

>  <Q_VSA_FHYD>
0.490343

>  <Q_VSA_FNEG>
0.464114

>  <Q_VSA_FPNEG>
0.230918

>  <Q_VSA_FPOL>
0.509657

>  <Q_VSA_FPOS>
0.535886

>  <Q_VSA_FPPOS>
0.278739

>  <Q_VSA_HYD>
224.15

>  <Q_VSA_NEG>
212.161

>  <Q_VSA_PNEG>
105.56

>  <Q_VSA_POL>
232.98

>  <Q_VSA_POS>
244.969

>  <Q_VSA_PPOS>
127.42

>  <RPC+>
0.178375

>  <RPC->
0.106235

>  <lip_acc>
10

>  <lip_don>
2

>  <lip_druglike>
1

>  <lip_violation>
1

>  <opr_brigid>
22

>  <opr_leadlike>
0

>  <opr_nring>
4

>  <opr_nrot>
6

>  <opr_violation>
2

>  <E>
73.7162

>  <E_ang>
14.6832

>  <E_ele>
-9.5681

>  <E_nb>
40.4837

>  <E_oop>
0.138954

>  <E_sol>
-23.7679

>  <E_stb>
0.853024

>  <E_str>
6.93909

>  <E_strain>
0.00520974

>  <E_tor>
10.6182

>  <E_vdw>
50.0518

>  <E_rele>
0

>  <E_rnb>
5.68434e-014

>  <E_rsol>
5.68434e-014

>  <E_rvdw>
0

>  <Kier1>
28.0194

>  <Kier2>
11.8068

>  <Kier3>
6.53331

>  <KierA1>
20.7729

>  <KierA2>
8.67083

>  <KierA3>
4.76523

>  <KierFlex>
5.14623

>  <logS>
-4.69379

>  <MNDO_dipole>
5.44661

>  <MNDO_E>
-154492

>  <MNDO_Eele>
-1.20004e+006

>  <MNDO_HF>
-22.4679

>  <MNDO_HOMO>
-9.18858

>  <MNDO_IP>
9.18858

>  <MNDO_LUMO>
-2.43355

>  <apol>
67.1516

>  <bpol>
39.7483

>  <mr>
12.6029

>  <dipole>
1.53444

>  <dipoleX>
-0.224529

>  <dipoleY>
-1.45142

>  <dipoleZ>
0.444379

>  <pmi>
14830.4

>  <pmiX>
10317.8

>  <pmiY>
3116.19

>  <pmiZ>
1396.47

>  <rgyr>
5.44342

>  <a_acc>
6

>  <a_acid>
0

>  <a_base>
0

>  <a_don>
2

>  <a_hyd>
20

>  <vsa_acc>
86.2842

>  <vsa_acid>
0

>  <vsa_base>
0

>  <vsa_don>
13.7578

>  <vsa_hyd>
280.005

>  <vsa_other>
57.4127

>  <vsa_pol>
100.042

>  <PM3_dipole>
4.15764

>  <PM3_E>
-140321

>  <PM3_Eele>
-1.19401e+006

>  <PM3_HF>
-181.789

>  <PM3_HOMO>
-9.222

>  <PM3_IP>
9.222

>  <PM3_LUMO>
-1.16875

>  <SlogP>
1.1637

>  <SlogP_VSA0>
16.405

>  <SlogP_VSA1>
75.8843

>  <SlogP_VSA2>
56.4095

>  <SlogP_VSA3>
73.7583

>  <SlogP_VSA4>
81.1434

>  <SlogP_VSA5>
31.6912

>  <SlogP_VSA6>
0

>  <SlogP_VSA7>
145.434

>  <SlogP_VSA8>
0

>  <SlogP_VSA9>
14.9601

>  <SMR>
12.3823

>  <SMR_VSA0>
143.621

>  <SMR_VSA1>
21.2087

>  <SMR_VSA2>
42.3115

>  <SMR_VSA3>
9.55672

>  <SMR_VSA4>
4.7171

>  <SMR_VSA5>
140.717

>  <SMR_VSA6>
95.2223

>  <SMR_VSA7>
38.3319

>  <ASA>
741.893

>  <ASA+>
263.223

>  <ASA->
321.385

>  <ASA_H>
476.852

>  <ASA_P>
265.041

>  <CASA+>
1967.07

>  <CASA->
2402.03

>  <DASA>
58.1623

>  <DCASA>
434.968

>  <FASA+>
0.354799

>  <FASA->
0.433196

>  <FASA_H>
0.642751

>  <FASA_P>
0.357249

>  <FCASA+>
2.65141

>  <FCASA->
3.23771

>  <VSA>
471.254

>  <TPSA>
136.72

>  <density>
0.842945

>  <vdw_area>
457.13

>  <vdw_vol>
593.76

>  <vsurf_A>
2.16726

>  <vsurf_CP>
0.063834

>  <vsurf_CW1>
2.64875

>  <vsurf_CW2>
2.23042

>  <vsurf_CW3>
1.64676

>  <vsurf_CW4>
0.863019

>  <vsurf_CW5>
0.39968

>  <vsurf_CW6>
0.160179

>  <vsurf_CW7>
0.0475009

>  <vsurf_CW8>
0.0141024

>  <vsurf_D1>
973.375

>  <vsurf_D2>
568.25

>  <vsurf_D3>
417.25

>  <vsurf_D4>
341.5

>  <vsurf_D5>
284

>  <vsurf_D6>
225.25

>  <vsurf_D7>
134.625

>  <vsurf_D8>
81.125

>  <vsurf_DD12>
4.1833

>  <vsurf_DD13>
4.38748

>  <vsurf_DD23>
0.5

>  <vsurf_DW12>
0.5

>  <vsurf_DW13>
0.5

>  <vsurf_DW23>
0.707107

>  <vsurf_EDmin1>
-2.79057

>  <vsurf_EDmin2>
-2.78556

>  <vsurf_EDmin3>
-2.73727

>  <vsurf_EWmin1>
-7.5075

>  <vsurf_EWmin2>
-7.09208

>  <vsurf_EWmin3>
-7.07035

>  <vsurf_G>
1.41169

>  <vsurf_HB1>
407.5

>  <vsurf_HB2>
557.375

>  <vsurf_HB3>
502.125

>  <vsurf_HB4>
219.5

>  <vsurf_HB5>
85.875

>  <vsurf_HB6>
31

>  <vsurf_HB7>
10.125

>  <vsurf_HB8>
2.75

>  <vsurf_HL1>
0.227082

>  <vsurf_HL2>
0.0959004

>  <vsurf_ID1>
1.01061

>  <vsurf_ID2>
0.975537

>  <vsurf_ID3>
1.15007

>  <vsurf_ID4>
1.49631

>  <vsurf_ID5>
1.83312

>  <vsurf_ID6>
1.8594

>  <vsurf_ID7>
1.30089

>  <vsurf_ID8>
0.880561

>  <vsurf_IW1>
0.305442

>  <vsurf_IW2>
0.408689

>  <vsurf_IW3>
0.895207

>  <vsurf_IW4>
1.10486

>  <vsurf_IW5>
1.46774

>  <vsurf_IW6>
2.74587

>  <vsurf_IW7>
5.40253

>  <vsurf_IW8>
7.44662

>  <vsurf_R>
1.46186

>  <vsurf_S>
679.954

>  <vsurf_V>
994

>  <vsurf_W1>
1709.88

>  <vsurf_W2>
1111.88

>  <vsurf_W3>
637.125

>  <vsurf_W4>
244

>  <vsurf_W5>
94.75

>  <vsurf_W6>
32.75

>  <vsurf_W7>
10.125

>  <vsurf_W8>
2.75

>  <vsurf_Wp1>
1302.38

>  <vsurf_Wp2>
554.5

>  <vsurf_Wp3>
135

>  <vsurf_Wp4>
24.5

>  <vsurf_Wp5>
8.875

>  <vsurf_Wp6>
1.75

>  <vsurf_Wp7>
0

>  <vsurf_Wp8>
0

>  <dens>
1.18323

>  <glob>
0.0536189

>  <std_dim1>
5.22873

>  <std_dim2>
1.98539

>  <std_dim3>
1.21075

>  <vol>
423

>  <logP(o/w)>
1.089

$$$$
D10.cdx
  MOE2008           3D

 63 67  0  0  0  0  0  0  0  0999 V2000
   -2.8150  -17.8230   -2.9280 C   0  0  0  0  0  0  0  0  0  0  0  0
   -3.5320  -17.4170   -3.6370 H   0  0  0  0  0  0  0  0  0  0  0  0
   -2.7380  -19.1970   -2.7160 C   0  0  0  0  0  0  0  0  0  0  0  0
   -3.4050  -19.8510   -3.2750 H   0  0  0  0  0  0  0  0  0  0  0  0
   -1.8230  -19.7310   -1.7980 C   0  0  0  0  0  0  0  0  0  0  0  0
   -0.9740  -18.8310   -1.1300 C   0  0  0  0  0  0  0  0  0  0  0  0
   -1.0420  -17.4450   -1.2990 C   0  0  0  0  0  0  0  0  0  0  0  0
   -1.9840  -16.9460   -2.2240 C   0  0  0  0  0  0  0  0  0  0  0  0
    0.0120  -19.0830   -0.2030 N   0  0  0  0  0  0  0  0  0  0  0  0
    0.2880  -20.0120    0.0950 H   0  0  0  0  0  0  0  0  0  0  0  0
    0.5490  -17.9100    0.2420 C   0  0  0  0  0  0  0  0  0  0  0  0
    1.3320  -17.9260    0.9910 H   0  0  0  0  0  0  0  0  0  0  0  0
   -0.0760  -16.8620   -0.4120 C   0  0  0  0  0  0  0  0  0  0  0  0
    0.2380  -15.4540   -0.2030 C   0  0  0  0  0  0  0  0  0  0  0  0
    1.3150  -15.0790    0.7990 C   0  0  0  0  0  0  0  0  0  0  0  0
    2.6210  -15.0280    0.3230 N   0  0  0  0  0  0  0  0  0  0  0  0
    3.7270  -14.7880    1.2480 C   0  0  0  0  0  0  0  0  0  0  0  0
    4.1820  -13.8310    0.9640 H   0  0  0  0  0  0  0  0  0  0  0  0
    3.3680  -14.6970    2.2780 H   0  0  0  0  0  0  0  0  0  0  0  0
    4.7680  -15.9150    1.1540 C   0  0  0  0  0  0  0  0  0  0  0  0
    4.3460  -16.8500    1.5400 H   0  0  0  0  0  0  0  0  0  0  0  0
    5.6300  -15.6480    1.7690 H   0  0  0  0  0  0  0  0  0  0  0  0
    5.1580  -16.1740   -0.2450 N   0  0  0  0  0  0  0  0  0  0  0  0
    4.0450  -16.3560   -1.1860 C   0  0  0  0  0  0  0  0  0  0  0  0
    4.4060  -16.4380   -2.2160 H   0  0  0  0  0  0  0  0  0  0  0  0
    3.5710  -17.3100   -0.9260 H   0  0  0  0  0  0  0  0  0  0  0  0
    3.0250  -15.2170   -1.0770 C   0  0  0  0  0  0  0  0  0  0  0  0
    2.1700  -15.4180   -1.7260 H   0  0  0  0  0  0  0  0  0  0  0  0
    3.4770  -14.2740   -1.4080 H   0  0  0  0  0  0  0  0  0  0  0  0
    6.4650  -16.2520   -0.7220 C   0  0  0  0  0  0  0  0  0  0  0  0
    7.5790  -16.2930    0.2510 C   0  0  0  0  0  0  0  0  0  0  0  0
   -0.3010  -14.5310   -0.8040 O   0  0  0  0  0  0  0  0  0  0  0  0
    0.9680  -14.9030    1.9610 O   0  0  0  0  0  0  0  0  0  0  0  0
    6.7670  -16.2920   -1.9110 O   0  0  0  0  0  0  0  0  0  0  0  0
   -2.1180  -15.6340   -2.4590 F   0  0  0  0  0  0  0  0  0  0  0  0
    7.6770  -17.3450    1.1690 C   0  0  0  0  0  0  0  0  0  0  0  0
    6.9300  -18.1340    1.1890 H   0  0  0  0  0  0  0  0  0  0  0  0
    8.7500  -17.3810    2.0580 C   0  0  0  0  0  0  0  0  0  0  0  0
    8.8340  -18.1900    2.7790 H   0  0  0  0  0  0  0  0  0  0  0  0
    9.7260  -16.3820    2.0170 C   0  0  0  0  0  0  0  0  0  0  0  0
   10.5640  -16.4150    2.7090 H   0  0  0  0  0  0  0  0  0  0  0  0
    9.6360  -15.3470    1.0830 C   0  0  0  0  0  0  0  0  0  0  0  0
   10.4060  -14.5800    1.0480 H   0  0  0  0  0  0  0  0  0  0  0  0
    8.5640  -15.3030    0.1920 C   0  0  0  0  0  0  0  0  0  0  0  0
    8.4980  -14.5050   -0.5430 H   0  0  0  0  0  0  0  0  0  0  0  0
   -1.7640  -21.1800   -1.5210 C   0  0  0  0  0  0  0  0  0  0  0  0
   -2.9730  -21.9060   -1.4250 N   0  0  0  0  0  0  0  0  0  0  0  0
   -2.8160  -22.9060   -1.2830 H   0  0  0  0  0  0  0  0  0  0  0  0
   -0.6840  -21.7280   -1.3470 O   0  0  0  0  0  0  0  0  0  0  0  0
   -4.3490  -21.4200   -0.5590 S   0  0  0  0  0  0  0  0  0  0  0  0
   -5.1500  -20.5640   -1.4080 O   0  0  0  0  0  0  0  0  0  0  0  0
   -4.9050  -22.6190    0.0310 O   0  0  0  0  0  0  0  0  0  0  0  0
   -3.7020  -20.4510    0.7760 C   0  0  0  0  0  0  0  0  0  0  0  0
   -2.8770  -21.0630    1.7240 C   0  0  0  0  0  0  0  0  0  0  0  0
   -2.6480  -22.1240    1.6680 H   0  0  0  0  0  0  0  0  0  0  0  0
   -2.3390  -20.2970    2.7570 C   0  0  0  0  0  0  0  0  0  0  0  0
   -1.6950  -20.7610    3.5010 H   0  0  0  0  0  0  0  0  0  0  0  0
   -2.6290  -18.9340    2.8410 C   0  0  0  0  0  0  0  0  0  0  0  0
   -2.2030  -18.3370    3.6440 H   0  0  0  0  0  0  0  0  0  0  0  0
   -3.4680  -18.3340    1.9000 C   0  0  0  0  0  0  0  0  0  0  0  0
   -3.6920  -17.2720    1.9740 H   0  0  0  0  0  0  0  0  0  0  0  0
   -4.0140  -19.0920    0.8660 C   0  0  0  0  0  0  0  0  0  0  0  0
   -4.6670  -18.6140    0.1390 H   0  0  0  0  0  0  0  0  0  0  0  0
  1  2  1  0  0  0  0
  1  3  1  0  0  0  0
  1  8  2  0  0  0  0
  3  4  1  0  0  0  0
  3  5  2  0  0  0  0
  5  6  1  0  0  0  0
  5 46  1  0  0  0  0
  6  7  2  0  0  0  0
  6  9  1  0  0  0  0
  7  8  1  0  0  0  0
  7 13  1  0  0  0  0
  8 35  1  0  0  0  0
  9 10  1  0  0  0  0
  9 11  1  0  0  0  0
 11 12  1  0  0  0  0
 11 13  2  0  0  0  0
 13 14  1  0  0  0  0
 14 15  1  0  0  0  0
 14 32  2  0  0  0  0
 15 16  1  0  0  0  0
 15 33  2  0  0  0  0
 16 17  1  0  0  0  0
 16 27  1  0  0  0  0
 17 18  1  0  0  0  0
 17 19  1  0  0  0  0
 17 20  1  0  0  0  0
 20 21  1  0  0  0  0
 20 22  1  0  0  0  0
 20 23  1  0  0  0  0
 23 24  1  0  0  0  0
 23 30  1  0  0  0  0
 24 25  1  0  0  0  0
 24 26  1  0  0  0  0
 24 27  1  0  0  0  0
 27 28  1  0  0  0  0
 27 29  1  0  0  0  0
 30 31  1  0  0  0  0
 30 34  2  0  0  0  0
 31 36  1  0  0  0  0
 31 44  2  0  0  0  0
 36 37  1  0  0  0  0
 36 38  2  0  0  0  0
 38 39  1  0  0  0  0
 38 40  1  0  0  0  0
 40 41  1  0  0  0  0
 40 42  2  0  0  0  0
 42 43  1  0  0  0  0
 42 44  1  0  0  0  0
 44 45  1  0  0  0  0
 46 47  1  0  0  0  0
 46 49  2  0  0  0  0
 47 48  1  0  0  0  0
 47 50  1  0  0  0  0
 50 51  2  0  0  0  0
 50 52  2  0  0  0  0
 50 53  1  0  0  0  0
 53 54  1  0  0  0  0
 53 62  2  0  0  0  0
 54 55  1  0  0  0  0
 54 56  2  0  0  0  0
 56 57  1  0  0  0  0
 56 58  1  0  0  0  0
 58 59  1  0  0  0  0
 58 60  2  0  0  0  0
 60 61  1  0  0  0  0
 60 62  1  0  0  0  0
 62 63  1  0  0  0  0
M  END
>  <Activity>
9.5376

>  <AM1_dipole>
6.76828

>  <AM1_E>
-168990

>  <AM1_Eele>
-1.48051e+006

>  <AM1_HF>
-106.566

>  <AM1_HOMO>
-9.26336

>  <AM1_IP>
9.26336

>  <AM1_LUMO>
-1.12936

>  <diameter>
21

>  <petitjean>
0.47619

>  <petitjeanSC>
0.909091

>  <radius>
11

>  <VDistEq>
4.09777

>  <VDistMa>
10.3282

>  <weinerPath>
5963

>  <weinerPol>
70

>  <BCUT_PEOE_0>
-2.71188

>  <BCUT_PEOE_1>
-0.64032

>  <BCUT_PEOE_2>
0.639944

>  <BCUT_PEOE_3>
2.6503

>  <BCUT_SLOGP_0>
-2.86001

>  <BCUT_SLOGP_1>
-0.53808

>  <BCUT_SLOGP_2>
0.768892

>  <BCUT_SLOGP_3>
2.50336

>  <BCUT_SMR_0>
-2.43203

>  <BCUT_SMR_1>
-0.451633

>  <BCUT_SMR_2>
0.815316

>  <BCUT_SMR_3>
2.92028

>  <GCUT_PEOE_0>
-0.858756

>  <GCUT_PEOE_1>
-0.422201

>  <GCUT_PEOE_2>
0.0806703

>  <GCUT_PEOE_3>
2.74303

>  <GCUT_SLOGP_0>
-1.14277

>  <GCUT_SLOGP_1>
-0.375833

>  <GCUT_SLOGP_2>
0.164454

>  <GCUT_SLOGP_3>
2.72999

>  <GCUT_SMR_0>
-0.508916

>  <GCUT_SMR_1>
-0.214888

>  <GCUT_SMR_2>
0.193547

>  <GCUT_SMR_3>
3.02381

>  <a_aro>
21

>  <a_count>
63

>  <a_IC>
114.411

>  <a_ICM>
1.81605

>  <a_nH>
23

>  <b_1rotN>
8

>  <b_1rotR>
0.181818

>  <b_ar>
22

>  <b_count>
67

>  <b_double>
4

>  <b_rotN>
9

>  <b_rotR>
0.204545

>  <b_single>
41

>  <b_triple>
0

>  <chi0v>
21.7806

>  <chi0v_C>
15.834

>  <chi1v>
13.7517

>  <chi1v_C>
8.02073

>  <chiral>
0

>  <chiral_u>
0

>  <nmol>
1

>  <reactive>
0

>  <rings>
5

>  <Weight>
562.578

>  <a_heavy>
40

>  <a_nB>
0

>  <a_nBr>
0

>  <a_nC>
28

>  <a_nCl>
0

>  <a_nF>
1

>  <a_nI>
0

>  <a_nN>
4

>  <a_nO>
6

>  <a_nP>
0

>  <a_nS>
1

>  <b_heavy>
44

>  <chi0>
28.4406

>  <chi0_C>
18.3717

>  <chi1>
19.1695

>  <chi1_C>
11.0244

>  <FCharge>
0

>  <VAdjEq>
0.307268

>  <VAdjMa>
6.45943

>  <zagreb>
216

>  <balabanJ>
1.15903

>  <PEOE_PC+>
3.52827

>  <PEOE_PC->
-3.52827

>  <PEOE_RPC+>
0.0866311

>  <PEOE_RPC->
0.155899

>  <PEOE_VSA+0>
100.651

>  <PEOE_VSA+1>
111.431

>  <PEOE_VSA+2>
17.6399

>  <PEOE_VSA+3>
18.7246

>  <PEOE_VSA+4>
0

>  <PEOE_VSA+5>
34.3576

>  <PEOE_VSA+6>
4.1846

>  <PEOE_VSA-0>
49.0196

>  <PEOE_VSA-1>
73.5294

>  <PEOE_VSA-2>
32.0165

>  <PEOE_VSA-3>
2.52952

>  <PEOE_VSA-4>
11.9086

>  <PEOE_VSA-5>
40.7008

>  <PEOE_VSA-6>
13.7038

>  <PEOE_VSA_FHYD>
0.794561

>  <PEOE_VSA_FNEG>
0.437715

>  <PEOE_VSA_FPNEG>
0.129925

>  <PEOE_VSA_FPOL>
0.205439

>  <PEOE_VSA_FPOS>
0.562285

>  <PEOE_VSA_FPPOS>
0.0755142

>  <PEOE_VSA_HYD>
405.541

>  <PEOE_VSA_NEG>
223.408

>  <PEOE_VSA_PNEG>
66.3132

>  <PEOE_VSA_POL>
104.855

>  <PEOE_VSA_POS>
286.988

>  <PEOE_VSA_PPOS>
38.5422

>  <PC+>
8.232

>  <PC->
-8.233

>  <Q_PC+>
8.232

>  <Q_PC->
-8.233

>  <Q_RPC+>
0.175777

>  <Q_RPC->
0.0964411

>  <Q_VSA_FHYD>
0.543532

>  <Q_VSA_FNEG>
0.54393

>  <Q_VSA_FPNEG>
0.206819

>  <Q_VSA_FPOL>
0.456468

>  <Q_VSA_FPOS>
0.45607

>  <Q_VSA_FPPOS>
0.249649

>  <Q_VSA_HYD>
277.417

>  <Q_VSA_NEG>
277.62

>  <Q_VSA_PNEG>
105.56

>  <Q_VSA_POL>
232.98

>  <Q_VSA_POS>
232.777

>  <Q_VSA_PPOS>
127.42

>  <RPC+>
0.175777

>  <RPC->
0.0964411

>  <lip_acc>
10

>  <lip_don>
2

>  <lip_druglike>
1

>  <lip_violation>
1

>  <opr_brigid>
28

>  <opr_leadlike>
0

>  <opr_nring>
5

>  <opr_nrot>
7

>  <opr_violation>
3

>  <E>
86.4479

>  <E_ang>
14.8216

>  <E_ele>
-0.788529

>  <E_nb>
60.4935

>  <E_oop>
0.116329

>  <E_sol>
-21.1998

>  <E_stb>
0.695291

>  <E_str>
7.50346

>  <E_strain>
0.00645497

>  <E_tor>
2.81771

>  <E_vdw>
61.282

>  <E_rele>
0

>  <E_rnb>
0

>  <E_rsol>
0

>  <E_rvdw>
0

>  <Kier1>
31.4256

>  <Kier2>
13.749

>  <Kier3>
7.05879

>  <KierA1>
22.7039

>  <KierA2>
9.84445

>  <KierA3>
5.02261

>  <KierFlex>
5.58769

>  <logS>
-6.51765

>  <MNDO_dipole>
8.03231

>  <MNDO_E>
-169864

>  <MNDO_Eele>
-1.46548e+006

>  <MNDO_HF>
7.72951

>  <MNDO_HOMO>
-9.40525

>  <MNDO_IP>
9.40525

>  <MNDO_LUMO>
-2.13132

>  <apol>
77.2852

>  <bpol>
41.9348

>  <mr>
14.6877

>  <dipole>
1.65348

>  <dipoleX>
1.14873

>  <dipoleY>
-0.659027

>  <dipoleZ>
0.990004

>  <pmi>
15611.9

>  <pmiX>
10987.9

>  <pmiY>
3338.69

>  <pmiZ>
1285.36

>  <rgyr>
5.26789

>  <a_acc>
6

>  <a_acid>
0

>  <a_base>
0

>  <a_don>
2

>  <a_hyd>
25

>  <vsa_acc>
86.2842

>  <vsa_acid>
0

>  <vsa_base>
0

>  <vsa_don>
13.7578

>  <vsa_hyd>
331.847

>  <vsa_other>
57.4127

>  <vsa_pol>
100.042

>  <PM3_dipole>
6.69169

>  <PM3_E>
-154675

>  <PM3_Eele>
-1.46111e+006

>  <PM3_HF>
-149.195

>  <PM3_HOMO>
-9.25207

>  <PM3_IP>
9.25207

>  <PM3_LUMO>
-1.1955

>  <SlogP>
2.593

>  <SlogP_VSA0>
16.405

>  <SlogP_VSA1>
75.8843

>  <SlogP_VSA2>
56.4095

>  <SlogP_VSA3>
73.7583

>  <SlogP_VSA4>
81.1434

>  <SlogP_VSA5>
1.55073

>  <SlogP_VSA6>
0

>  <SlogP_VSA7>
233.65

>  <SlogP_VSA8>
0

>  <SlogP_VSA9>
14.9601

>  <SMR>
14.2607

>  <SMR_VSA0>
143.621

>  <SMR_VSA1>
21.2087

>  <SMR_VSA2>
43.8623

>  <SMR_VSA3>
9.55672

>  <SMR_VSA4>
4.7171

>  <SMR_VSA5>
228.933

>  <SMR_VSA6>
95.2223

>  <SMR_VSA7>
6.64074

>  <ASA>
759.703

>  <ASA+>
322.658

>  <ASA->
342.387

>  <ASA_H>
516.51

>  <ASA_P>
243.193

>  <CASA+>
2656.12

>  <CASA->
2818.87

>  <DASA>
19.7297

>  <DCASA>
162.757

>  <FASA+>
0.424716

>  <FASA->
0.450686

>  <FASA_H>
0.679884

>  <FASA_P>
0.320116

>  <FCASA+>
3.49626

>  <FCASA->
3.7105

>  <VSA>
528.961

>  <TPSA>
136.72

>  <density>
0.822116

>  <vdw_area>
510.396

>  <vdw_vol>
684.305

>  <vsurf_A>
2.81606

>  <vsurf_CP>
0.064789

>  <vsurf_CW1>
2.57981

>  <vsurf_CW2>
2.19042

>  <vsurf_CW3>
1.52805

>  <vsurf_CW4>
0.841279

>  <vsurf_CW5>
0.388912

>  <vsurf_CW6>
0.141144

>  <vsurf_CW7>
0.0379296

>  <vsurf_CW8>
0.0147035

>  <vsurf_D1>
1000.13

>  <vsurf_D2>
573.375

>  <vsurf_D3>
416.375

>  <vsurf_D4>
348

>  <vsurf_D5>
294.625

>  <vsurf_D6>
237.125

>  <vsurf_D7>
141.375

>  <vsurf_D8>
74.625

>  <vsurf_DD12>
0.5

>  <vsurf_DD13>
6.59545

>  <vsurf_DD23>
6.34429

>  <vsurf_DW12>
1.11803

>  <vsurf_DW13>
0.866025

>  <vsurf_DW23>
0.707107

>  <vsurf_EDmin1>
-2.76026

>  <vsurf_EDmin2>
-2.66002

>  <vsurf_EDmin3>
-2.59824

>  <vsurf_EWmin1>
-7.23556

>  <vsurf_EWmin2>
-7.03782

>  <vsurf_EWmin3>
-7.02035

>  <vsurf_G>
1.3866

>  <vsurf_HB1>
399.25

>  <vsurf_HB2>
521.5

>  <vsurf_HB3>
490.25

>  <vsurf_HB4>
218

>  <vsurf_HB5>
81.5

>  <vsurf_HB6>
27.5

>  <vsurf_HB7>
8.625

>  <vsurf_HB8>
2.625

>  <vsurf_HL1>
0.223056

>  <vsurf_HL2>
0.0905172

>  <vsurf_ID1>
1.34281

>  <vsurf_ID2>
1.46889

>  <vsurf_ID3>
1.82698

>  <vsurf_ID4>
2.31319

>  <vsurf_ID5>
2.77237

>  <vsurf_ID6>
2.84406

>  <vsurf_ID7>
1.72682

>  <vsurf_ID8>
1.26418

>  <vsurf_IW1>
0.409843

>  <vsurf_IW2>
0.601347

>  <vsurf_IW3>
1.1573

>  <vsurf_IW4>
1.25673

>  <vsurf_IW5>
1.35266

>  <vsurf_IW6>
2.34534

>  <vsurf_IW7>
5.65532

>  <vsurf_IW8>
6.95606

>  <vsurf_R>
1.53751

>  <vsurf_S>
712.759

>  <vsurf_V>
1095.88

>  <vsurf_W1>
1728.5

>  <vsurf_W2>
1112.63

>  <vsurf_W3>
626

>  <vsurf_W4>
246

>  <vsurf_W5>
92.875

>  <vsurf_W6>
31.5

>  <vsurf_W7>
8.625

>  <vsurf_W8>
2.625

>  <vsurf_Wp1>
1329.25

>  <vsurf_Wp2>
591.125

>  <vsurf_Wp3>
135.75

>  <vsurf_Wp4>
28

>  <vsurf_Wp5>
11.375

>  <vsurf_Wp6>
4

>  <vsurf_Wp7>
0

>  <vsurf_Wp8>
0

>  <dens>
1.15697

>  <glob>
0.0991783

>  <std_dim1>
4.85637

>  <std_dim2>
1.86009

>  <std_dim3>
1.5294

>  <vol>
486.25

>  <logP(o/w)>
2.743

$$$$
D11.cdx
  MOE2008           3D

 52 55  0  0  0  0  0  0  0  0999 V2000
   -4.5610   17.6090    0.8430 C   0  0  0  0  0  0  0  0  0  0  0  0
   -5.4300   18.2530    0.9520 H   0  0  0  0  0  0  0  0  0  0  0  0
   -4.5260   16.3640    1.4660 C   0  0  0  0  0  0  0  0  0  0  0  0
   -5.3690   16.0720    2.0870 H   0  0  0  0  0  0  0  0  0  0  0  0
   -3.4170   15.5160    1.3260 C   0  0  0  0  0  0  0  0  0  0  0  0
   -2.3210   16.0110    0.5910 C   0  0  0  0  0  0  0  0  0  0  0  0
   -2.3200   17.2550   -0.0480 C   0  0  0  0  0  0  0  0  0  0  0  0
   -3.4770   18.0540    0.0820 C   0  0  0  0  0  0  0  0  0  0  0  0
   -1.0900   15.4370    0.3610 N   0  0  0  0  0  0  0  0  0  0  0  0
   -0.8070   14.5400    0.7390 H   0  0  0  0  0  0  0  0  0  0  0  0
   -0.3290   16.2500   -0.4310 C   0  0  0  0  0  0  0  0  0  0  0  0
    0.6670   15.9400   -0.7230 H   0  0  0  0  0  0  0  0  0  0  0  0
   -1.0500   17.3980   -0.7080 C   0  0  0  0  0  0  0  0  0  0  0  0
   -0.5640   18.5170   -1.5100 C   0  0  0  0  0  0  0  0  0  0  0  0
    0.8420   18.4870   -2.0850 C   0  0  0  0  0  0  0  0  0  0  0  0
    1.8530   19.0490   -1.3060 N   0  0  0  0  0  0  0  0  0  0  0  0
    3.2340   18.9950   -1.7860 C   0  0  0  0  0  0  0  0  0  0  0  0
    3.3640   18.1470   -2.4670 H   0  0  0  0  0  0  0  0  0  0  0  0
    3.4020   19.9110   -2.3660 H   0  0  0  0  0  0  0  0  0  0  0  0
    4.2420   18.9070   -0.6360 C   0  0  0  0  0  0  0  0  0  0  0  0
    5.2620   18.9190   -1.0330 H   0  0  0  0  0  0  0  0  0  0  0  0
    4.0960   17.9660   -0.0940 H   0  0  0  0  0  0  0  0  0  0  0  0
    4.0770   19.9930    0.3420 N   0  0  0  0  0  0  0  0  0  0  0  0
    2.7650   20.6460    0.3860 C   0  0  0  0  0  0  0  0  0  0  0  0
    2.5820   21.0560    1.3860 H   0  0  0  0  0  0  0  0  0  0  0  0
    2.8140   21.4910   -0.3110 H   0  0  0  0  0  0  0  0  0  0  0  0
    1.6230   19.7050   -0.0120 C   0  0  0  0  0  0  0  0  0  0  0  0
    0.6780   20.2570   -0.0370 H   0  0  0  0  0  0  0  0  0  0  0  0
    1.5220   18.9050    0.7310 H   0  0  0  0  0  0  0  0  0  0  0  0
    5.0750   20.4540    1.1990 C   0  0  0  0  0  0  0  0  0  0  0  0
    6.3620   19.7240    1.2500 C   0  0  0  0  0  0  0  0  0  0  0  0
   -1.2300   19.5180   -1.7530 O   0  0  0  0  0  0  0  0  0  0  0  0
    1.0020   17.9650   -3.1830 O   0  0  0  0  0  0  0  0  0  0  0  0
    4.9620   21.4430    1.9170 O   0  0  0  0  0  0  0  0  0  0  0  0
   -3.5700   19.2620   -0.4890 F   0  0  0  0  0  0  0  0  0  0  0  0
    6.4090   18.3920    1.6760 C   0  0  0  0  0  0  0  0  0  0  0  0
    5.5020   17.8710    1.9710 H   0  0  0  0  0  0  0  0  0  0  0  0
    7.6370   17.7340    1.7380 C   0  0  0  0  0  0  0  0  0  0  0  0
    7.6850   16.6990    2.0650 H   0  0  0  0  0  0  0  0  0  0  0  0
    8.8090   18.4080    1.3900 C   0  0  0  0  0  0  0  0  0  0  0  0
    9.7660   17.8940    1.4430 H   0  0  0  0  0  0  0  0  0  0  0  0
    8.7600   19.7450    0.9880 C   0  0  0  0  0  0  0  0  0  0  0  0
    9.6780   20.2680    0.7320 H   0  0  0  0  0  0  0  0  0  0  0  0
    7.5360   20.4090    0.9230 C   0  0  0  0  0  0  0  0  0  0  0  0
    7.4990   21.4530    0.6220 H   0  0  0  0  0  0  0  0  0  0  0  0
   -3.3640   14.1910    1.9980 C   0  0  0  0  0  0  0  0  0  0  0  0
   -4.4290   13.3080    1.9200 N   0  0  0  0  0  0  0  0  0  0  0  0
   -4.3300   12.4490    2.4580 H   0  0  0  0  0  0  0  0  0  0  0  0
   -2.3210   13.8830    2.5710 O   0  0  0  0  0  0  0  0  0  0  0  0
   -5.5760   13.4680    1.1440 N   0  0  0  0  0  0  0  0  0  0  0  0
   -5.3560   13.9770    0.2860 H   0  0  0  0  0  0  0  0  0  0  0  0
   -6.2700   14.0080    1.6610 H   0  0  0  0  0  0  0  0  0  0  0  0
  1  2  1  0  0  0  0
  1  3  1  0  0  0  0
  1  8  2  0  0  0  0
  3  4  1  0  0  0  0
  3  5  2  0  0  0  0
  5  6  1  0  0  0  0
  5 46  1  0  0  0  0
  6  7  2  0  0  0  0
  6  9  1  0  0  0  0
  7  8  1  0  0  0  0
  7 13  1  0  0  0  0
  8 35  1  0  0  0  0
  9 10  1  0  0  0  0
  9 11  1  0  0  0  0
 11 12  1  0  0  0  0
 11 13  2  0  0  0  0
 13 14  1  0  0  0  0
 14 15  1  0  0  0  0
 14 32  2  0  0  0  0
 15 16  1  0  0  0  0
 15 33  2  0  0  0  0
 16 17  1  0  0  0  0
 16 27  1  0  0  0  0
 17 18  1  0  0  0  0
 17 19  1  0  0  0  0
 17 20  1  0  0  0  0
 20 21  1  0  0  0  0
 20 22  1  0  0  0  0
 20 23  1  0  0  0  0
 23 24  1  0  0  0  0
 23 30  1  0  0  0  0
 24 25  1  0  0  0  0
 24 26  1  0  0  0  0
 24 27  1  0  0  0  0
 27 28  1  0  0  0  0
 27 29  1  0  0  0  0
 30 31  1  0  0  0  0
 30 34  2  0  0  0  0
 31 36  1  0  0  0  0
 31 44  2  0  0  0  0
 36 37  1  0  0  0  0
 36 38  2  0  0  0  0
 38 39  1  0  0  0  0
 38 40  1  0  0  0  0
 40 41  1  0  0  0  0
 40 42  2  0  0  0  0
 42 43  1  0  0  0  0
 42 44  1  0  0  0  0
 44 45  1  0  0  0  0
 46 47  1  0  0  0  0
 46 49  2  0  0  0  0
 47 48  1  0  0  0  0
 47 50  1  0  0  0  0
 50 51  1  0  0  0  0
 50 52  1  0  0  0  0
M  END
>  <Activity>
8.5702

>  <AM1_dipole>
3.00188

>  <AM1_E>
-135842

>  <AM1_Eele>
-1.03921e+006

>  <AM1_HF>
-50.0174

>  <AM1_HOMO>
-9.20646

>  <AM1_IP>
9.20646

>  <AM1_LUMO>
-1.0913

>  <diameter>
17

>  <petitjean>
0.470588

>  <petitjeanSC>
0.888889

>  <radius>
9

>  <VDistEq>
3.81056

>  <VDistMa>
9.6837

>  <weinerPath>
3172

>  <weinerPol>
56

>  <BCUT_PEOE_0>
-2.71188

>  <BCUT_PEOE_1>
-0.638245

>  <BCUT_PEOE_2>
0.627346

>  <BCUT_PEOE_3>
2.65031

>  <BCUT_SLOGP_0>
-2.86001

>  <BCUT_SLOGP_1>
-0.53808

>  <BCUT_SLOGP_2>
0.750233

>  <BCUT_SLOGP_3>
2.50335

>  <BCUT_SMR_0>
-2.43203

>  <BCUT_SMR_1>
-0.426763

>  <BCUT_SMR_2>
0.789964

>  <BCUT_SMR_3>
2.92026

>  <GCUT_PEOE_0>
-0.866034

>  <GCUT_PEOE_1>
-0.443424

>  <GCUT_PEOE_2>
0.080099

>  <GCUT_PEOE_3>
2.69361

>  <GCUT_SLOGP_0>
-1.44489

>  <GCUT_SLOGP_1>
-0.350362

>  <GCUT_SLOGP_2>
0.165889

>  <GCUT_SLOGP_3>
2.66656

>  <GCUT_SMR_0>
-0.508921

>  <GCUT_SMR_1>
-0.216057

>  <GCUT_SMR_2>
0.193051

>  <GCUT_SMR_3>
2.96453

>  <a_aro>
15

>  <a_count>
52

>  <a_IC>
92.2672

>  <a_ICM>
1.77437

>  <a_nH>
20

>  <b_1rotN>
6

>  <b_1rotR>
0.171429

>  <b_ar>
16

>  <b_count>
55

>  <b_double>
4

>  <b_rotN>
7

>  <b_rotR>
0.2

>  <b_single>
35

>  <b_triple>
0

>  <chi0v>
16.93

>  <chi0v_C>
12.4472

>  <chi1v>
9.905

>  <chi1v_C>
6.11004

>  <chiral>
0

>  <chiral_u>
0

>  <nmol>
1

>  <reactive>
0

>  <rings>
4

>  <Weight>
437.431

>  <a_heavy>
32

>  <a_nB>
0

>  <a_nBr>
0

>  <a_nC>
22

>  <a_nCl>
0

>  <a_nF>
1

>  <a_nI>
0

>  <a_nN>
5

>  <a_nO>
4

>  <a_nP>
0

>  <a_nS>
0

>  <b_heavy>
35

>  <chi0>
22.8277

>  <chi0_C>
14.2588

>  <chi1>
15.4179

>  <chi1_C>
8.20791

>  <FCharge>
0

>  <VAdjEq>
0.359771

>  <VAdjMa>
6.12928

>  <zagreb>
170

>  <balabanJ>
1.3244

>  <PEOE_PC+>
3.19889

>  <PEOE_PC->
-3.19889

>  <PEOE_RPC+>
0.092251

>  <PEOE_RPC->
0.112315

>  <PEOE_VSA+0>
73.9323

>  <PEOE_VSA+1>
79.3628

>  <PEOE_VSA+2>
26.2589

>  <PEOE_VSA+3>
17.238

>  <PEOE_VSA+4>
0

>  <PEOE_VSA+5>
47.3071

>  <PEOE_VSA+6>
0

>  <PEOE_VSA-0>
49.0196

>  <PEOE_VSA-1>
36.7647

>  <PEOE_VSA-2>
0

>  <PEOE_VSA-3>
0

>  <PEOE_VSA-4>
22.2982

>  <PEOE_VSA-5>
58.143

>  <PEOE_VSA-6>
0.136891

>  <PEOE_VSA_FHYD>
0.688435

>  <PEOE_VSA_FNEG>
0.405306

>  <PEOE_VSA_FPNEG>
0.196311

>  <PEOE_VSA_FPOL>
0.311565

>  <PEOE_VSA_FPOS>
0.594694

>  <PEOE_VSA_FPPOS>
0.115253

>  <PEOE_VSA_HYD>
282.576

>  <PEOE_VSA_NEG>
166.362

>  <PEOE_VSA_PNEG>
80.5781

>  <PEOE_VSA_POL>
127.885

>  <PEOE_VSA_POS>
244.099

>  <PEOE_VSA_PPOS>
47.3071

>  <PC+>
6.529

>  <PC->
-6.53

>  <Q_PC+>
6.529

>  <Q_PC->
-6.53

>  <Q_RPC+>
0.100475

>  <Q_RPC->
0.111639

>  <Q_VSA_FHYD>
0.46443

>  <Q_VSA_FNEG>
0.467473

>  <Q_VSA_FPNEG>
0.207763

>  <Q_VSA_FPOL>
0.53557

>  <Q_VSA_FPOS>
0.532527

>  <Q_VSA_FPPOS>
0.327808

>  <Q_VSA_HYD>
190.631

>  <Q_VSA_NEG>
191.88

>  <Q_VSA_PNEG>
85.2785

>  <Q_VSA_POL>
219.831

>  <Q_VSA_POS>
218.582

>  <Q_VSA_PPOS>
134.552

>  <RPC+>
0.100475

>  <RPC->
0.111639

>  <lip_acc>
9

>  <lip_don>
3

>  <lip_druglike>
1

>  <lip_violation>
0

>  <opr_brigid>
22

>  <opr_leadlike>
1

>  <opr_nring>
4

>  <opr_nrot>
6

>  <opr_violation>
1

>  <E>
130.539

>  <E_ang>
13.4229

>  <E_ele>
48.636

>  <E_nb>
98.9042

>  <E_oop>
0.200576

>  <E_sol>
-26.2465

>  <E_stb>
0.964541

>  <E_str>
6.77161

>  <E_strain>
0.00479793

>  <E_tor>
10.2755

>  <E_vdw>
50.2682

>  <E_rele>
0

>  <E_rnb>
8.52651e-014

>  <E_rsol>
8.52651e-014

>  <E_rvdw>
0

>  <Kier1>
25.1037

>  <Kier2>
11.16

>  <Kier3>
5.32653

>  <KierA1>
17.108

>  <KierA2>
7.5033

>  <KierA3>
3.54715

>  <KierFlex>
4.01145

>  <logS>
-4.55662

>  <MNDO_dipole>
4.10745

>  <MNDO_E>
-135989

>  <MNDO_Eele>
-1.03306e+006

>  <MNDO_HF>
-69.9814

>  <MNDO_HOMO>
-9.35166

>  <MNDO_IP>
9.35166

>  <MNDO_LUMO>
-1.17299

>  <apol>
61.3209

>  <bpol>
30.1991

>  <mr>
11.4893

>  <dipole>
1.15995

>  <dipoleX>
0.0538119

>  <dipoleY>
-1.10706

>  <dipoleZ>
0.342081

>  <pmi>
11096.1

>  <pmiX>
8066.34

>  <pmiY>
2158.16

>  <pmiZ>
871.622

>  <rgyr>
5.03652

>  <a_acc>
5

>  <a_acid>
0

>  <a_base>
0

>  <a_don>
3

>  <a_hyd>
19

>  <vsa_acc>
54.2677

>  <vsa_acid>
0

>  <vsa_base>
0

>  <vsa_don>
15.1036

>  <vsa_hyd>
248.62

>  <vsa_other>
47.3071

>  <vsa_pol>
90.8522

>  <PM3_dipole>
3.59851

>  <PM3_E>
-123120

>  <PM3_Eele>
-1.01462e+006

>  <PM3_HF>
-82.6862

>  <PM3_HOMO>
-9.23362

>  <PM3_IP>
9.23362

>  <PM3_LUMO>
-1.14915

>  <SlogP>
1.0778

>  <SlogP_VSA0>
50.6629

>  <SlogP_VSA1>
27.7126

>  <SlogP_VSA2>
49.7688

>  <SlogP_VSA3>
73.7583

>  <SlogP_VSA4>
81.1434

>  <SlogP_VSA5>
0

>  <SlogP_VSA6>
0

>  <SlogP_VSA7>
145.434

>  <SlogP_VSA8>
0

>  <SlogP_VSA9>
14.9601

>  <SMR>
11.3166

>  <SMR_VSA0>
95.4489

>  <SMR_VSA1>
21.2087

>  <SMR_VSA2>
43.7948

>  <SMR_VSA3>
9.55672

>  <SMR_VSA4>
37.4918

>  <SMR_VSA5>
140.717

>  <SMR_VSA6>
95.2223

>  <SMR_VSA7>
0

>  <ASA>
685.738

>  <ASA+>
297.193

>  <ASA->
283.665

>  <ASA_H>
408.87

>  <ASA_P>
276.868

>  <CASA+>
1940.37

>  <CASA->
1852.33

>  <DASA>
13.5276

>  <DCASA>
88.038

>  <FASA+>
0.433391

>  <FASA->
0.413664

>  <FASA_H>
0.596248

>  <FASA_P>
0.403752

>  <FCASA+>
2.82961

>  <FCASA->
2.70122

>  <VSA>
429.598

>  <TPSA>
128.6

>  <density>
0.803306

>  <vdw_area>
410.462

>  <vdw_vol>
544.539

>  <vsurf_A>
4.93557

>  <vsurf_CP>
0.0505881

>  <vsurf_CW1>
2.74804

>  <vsurf_CW2>
2.3651

>  <vsurf_CW3>
1.74946

>  <vsurf_CW4>
0.970368

>  <vsurf_CW5>
0.465363

>  <vsurf_CW6>
0.157077

>  <vsurf_CW7>
0.0246265

>  <vsurf_CW8>
0.00386647

>  <vsurf_D1>
780.875

>  <vsurf_D2>
453.125

>  <vsurf_D3>
331

>  <vsurf_D4>
276.875

>  <vsurf_D5>
231.625

>  <vsurf_D6>
189

>  <vsurf_D7>
116.5

>  <vsurf_D8>
66.625

>  <vsurf_DD12>
2.29129

>  <vsurf_DD13>
0.5

>  <vsurf_DD23>
1.87083

>  <vsurf_DW12>
0.5

>  <vsurf_DW13>
0.707107

>  <vsurf_DW23>
1.11803

>  <vsurf_EDmin1>
-2.60893

>  <vsurf_EDmin2>
-2.60335

>  <vsurf_EDmin3>
-2.60208

>  <vsurf_EWmin1>
-6.51392

>  <vsurf_EWmin2>
-6.3696

>  <vsurf_EWmin3>
-6.25693

>  <vsurf_G>
1.3848

>  <vsurf_HB1>
439.25

>  <vsurf_HB2>
526.625

>  <vsurf_HB3>
437

>  <vsurf_HB4>
196.125

>  <vsurf_HB5>
73.875

>  <vsurf_HB6>
21.875

>  <vsurf_HB7>
4.875

>  <vsurf_HB8>
0.625

>  <vsurf_HL1>
0.28852

>  <vsurf_HL2>
0.100226

>  <vsurf_ID1>
2.09371

>  <vsurf_ID2>
2.13086

>  <vsurf_ID3>
2.42267

>  <vsurf_ID4>
2.81438

>  <vsurf_ID5>
3.2146

>  <vsurf_ID6>
3.29195

>  <vsurf_ID7>
2.14406

>  <vsurf_ID8>
1.59045

>  <vsurf_IW1>
0.765051

>  <vsurf_IW2>
1.56736

>  <vsurf_IW3>
2.16536

>  <vsurf_IW4>
2.56512

>  <vsurf_IW5>
2.88021

>  <vsurf_IW6>
3.26584

>  <vsurf_IW7>
5.6272

>  <vsurf_IW8>
8.31163

>  <vsurf_R>
1.4389

>  <vsurf_S>
621.829

>  <vsurf_V>
894.75

>  <vsurf_W1>
1663.63

>  <vsurf_W2>
1122.63

>  <vsurf_W3>
638.125

>  <vsurf_W4>
253

>  <vsurf_W5>
95.5

>  <vsurf_W6>
27.75

>  <vsurf_W7>
5.125

>  <vsurf_W8>
0.625

>  <vsurf_Wp1>
1224.38

>  <vsurf_Wp2>
596

>  <vsurf_Wp3>
201.125

>  <vsurf_Wp4>
56.875

>  <vsurf_Wp5>
21.625

>  <vsurf_Wp6>
5.875

>  <vsurf_Wp7>
0.25

>  <vsurf_Wp8>
0

>  <dens>
1.11982

>  <glob>
0.0552491

>  <std_dim1>
4.86727

>  <std_dim2>
1.84532

>  <std_dim3>
1.14406

>  <vol>
390.625

>  <logP(o/w)>
0.761

$$$$
D11.cdx
  MOE2008           3D

 64 68  0  0  0  0  0  0  0  0999 V2000
   -2.5570   15.3590    0.3790 C   0  0  0  0  0  0  0  0  0  0  0  0
   -3.2200   16.1640    0.0740 H   0  0  0  0  0  0  0  0  0  0  0  0
   -2.9760   14.4200    1.3180 C   0  0  0  0  0  0  0  0  0  0  0  0
   -3.9600   14.5280    1.7620 H   0  0  0  0  0  0  0  0  0  0  0  0
   -2.1380   13.3640    1.7000 C   0  0  0  0  0  0  0  0  0  0  0  0
   -0.8320   13.3500    1.1720 C   0  0  0  0  0  0  0  0  0  0  0  0
   -0.3740   14.2820    0.2340 C   0  0  0  0  0  0  0  0  0  0  0  0
   -1.2740   15.2920   -0.1710 C   0  0  0  0  0  0  0  0  0  0  0  0
    0.2170   12.5020    1.4460 N   0  0  0  0  0  0  0  0  0  0  0  0
    0.1730   11.7410    2.1140 H   0  0  0  0  0  0  0  0  0  0  0  0
    1.3100   12.8430    0.6990 C   0  0  0  0  0  0  0  0  0  0  0  0
    2.2240   12.2680    0.7830 H   0  0  0  0  0  0  0  0  0  0  0  0
    0.9900   13.9460   -0.0740 C   0  0  0  0  0  0  0  0  0  0  0  0
    1.9040   14.6160   -0.9940 C   0  0  0  0  0  0  0  0  0  0  0  0
    3.3790   14.2440   -1.0130 C   0  0  0  0  0  0  0  0  0  0  0  0
    4.2600   15.1540   -0.4280 N   0  0  0  0  0  0  0  0  0  0  0  0
    5.6970   14.8800   -0.4610 C   0  0  0  0  0  0  0  0  0  0  0  0
    5.9370   14.3450    0.4660 H   0  0  0  0  0  0  0  0  0  0  0  0
    5.9360   14.2150   -1.2970 H   0  0  0  0  0  0  0  0  0  0  0  0
    6.5220   16.1670   -0.5570 C   0  0  0  0  0  0  0  0  0  0  0  0
    6.3020   16.6710   -1.5050 H   0  0  0  0  0  0  0  0  0  0  0  0
    7.5900   15.9280   -0.5340 H   0  0  0  0  0  0  0  0  0  0  0  0
    6.2030   17.1200    0.5180 N   0  0  0  0  0  0  0  0  0  0  0  0
    4.8960   16.9730    1.1640 C   0  0  0  0  0  0  0  0  0  0  0  0
    5.0440   16.2970    2.0160 H   0  0  0  0  0  0  0  0  0  0  0  0
    4.5640   17.9370    1.5650 H   0  0  0  0  0  0  0  0  0  0  0  0
    3.8320   16.4000    0.2220 C   0  0  0  0  0  0  0  0  0  0  0  0
    3.6230   17.1160   -0.5820 H   0  0  0  0  0  0  0  0  0  0  0  0
    2.9010   16.2300    0.7700 H   0  0  0  0  0  0  0  0  0  0  0  0
    7.0610   18.1190    0.9780 C   0  0  0  0  0  0  0  0  0  0  0  0
    8.3170   18.3730    0.2370 C   0  0  0  0  0  0  0  0  0  0  0  0
    1.5560   15.5070   -1.7630 O   0  0  0  0  0  0  0  0  0  0  0  0
    3.7010   13.1820   -1.5320 O   0  0  0  0  0  0  0  0  0  0  0  0
    6.8460   18.8040    1.9730 O   0  0  0  0  0  0  0  0  0  0  0  0
   -0.9240   16.2350   -1.0560 F   0  0  0  0  0  0  0  0  0  0  0  0
    8.2850   18.7780   -1.1010 C   0  0  0  0  0  0  0  0  0  0  0  0
    7.3380   18.9060   -1.6200 H   0  0  0  0  0  0  0  0  0  0  0  0
    9.4810   19.0340   -1.7720 C   0  0  0  0  0  0  0  0  0  0  0  0
    9.4650   19.3440   -2.8130 H   0  0  0  0  0  0  0  0  0  0  0  0
   10.6990   18.9010   -1.1020 C   0  0  0  0  0  0  0  0  0  0  0  0
   11.6300   19.1050   -1.6260 H   0  0  0  0  0  0  0  0  0  0  0  0
   10.7260   18.5210    0.2420 C   0  0  0  0  0  0  0  0  0  0  0  0
   11.6770   18.4330    0.7620 H   0  0  0  0  0  0  0  0  0  0  0  0
    9.5340   18.2620    0.9170 C   0  0  0  0  0  0  0  0  0  0  0  0
    9.5540   17.9780    1.9660 H   0  0  0  0  0  0  0  0  0  0  0  0
   -2.5670   12.3890    2.7200 C   0  0  0  0  0  0  0  0  0  0  0  0
   -3.6620   11.5710    2.5590 N   0  0  0  0  0  0  0  0  0  0  0  0
   -3.8010   11.0300    3.4080 H   0  0  0  0  0  0  0  0  0  0  0  0
   -1.8630   12.2820    3.7220 O   0  0  0  0  0  0  0  0  0  0  0  0
   -4.6010   11.3020    1.4470 C   0  0  0  0  0  0  0  0  0  0  0  0
   -4.9800   10.2780    1.5800 H   0  0  0  0  0  0  0  0  0  0  0  0
   -4.2010   11.5380   -0.0140 C   0  0  0  0  0  0  0  0  0  0  0  0
   -4.3650   10.6790   -0.6720 H   0  0  0  0  0  0  0  0  0  0  0  0
   -3.2200   11.9600   -0.2270 H   0  0  0  0  0  0  0  0  0  0  0  0
   -5.2860   12.4990   -0.0800 N   0  0  0  0  0  0  0  0  0  0  0  0
   -5.7590   12.2940    1.2720 C   0  0  0  0  0  0  0  0  0  0  0  0
   -5.7360   13.1900    1.8950 H   0  0  0  0  0  0  0  0  0  0  0  0
   -6.7560   11.8450    1.3130 H   0  0  0  0  0  0  0  0  0  0  0  0
   -5.6900   13.3040   -1.1050 C   0  0  0  0  0  0  0  0  0  0  0  0
   -6.8690   14.1840   -0.7890 C   0  0  0  0  0  0  0  0  0  0  0  0
   -7.7270   13.5710   -0.5010 H   0  0  0  0  0  0  0  0  0  0  0  0
   -7.1370   14.7710   -1.6730 H   0  0  0  0  0  0  0  0  0  0  0  0
   -6.6140   14.8680    0.0250 H   0  0  0  0  0  0  0  0  0  0  0  0
   -5.1410   13.3270   -2.2040 O   0  0  0  0  0  0  0  0  0  0  0  0
  1  2  1  0  0  0  0
  1  3  1  0  0  0  0
  1  8  2  0  0  0  0
  3  4  1  0  0  0  0
  3  5  2  0  0  0  0
  5  6  1  0  0  0  0
  5 46  1  0  0  0  0
  6  7  2  0  0  0  0
  6  9  1  0  0  0  0
  7  8  1  0  0  0  0
  7 13  1  0  0  0  0
  8 35  1  0  0  0  0
  9 10  1  0  0  0  0
  9 11  1  0  0  0  0
 11 12  1  0  0  0  0
 11 13  2  0  0  0  0
 13 14  1  0  0  0  0
 14 15  1  0  0  0  0
 14 32  2  0  0  0  0
 15 16  1  0  0  0  0
 15 33  2  0  0  0  0
 16 17  1  0  0  0  0
 16 27  1  0  0  0  0
 17 18  1  0  0  0  0
 17 19  1  0  0  0  0
 17 20  1  0  0  0  0
 20 21  1  0  0  0  0
 20 22  1  0  0  0  0
 20 23  1  0  0  0  0
 23 24  1  0  0  0  0
 23 30  1  0  0  0  0
 24 25  1  0  0  0  0
 24 26  1  0  0  0  0
 24 27  1  0  0  0  0
 27 28  1  0  0  0  0
 27 29  1  0  0  0  0
 30 31  1  0  0  0  0
 30 34  2  0  0  0  0
 31 36  1  0  0  0  0
 31 44  2  0  0  0  0
 36 37  1  0  0  0  0
 36 38  2  0  0  0  0
 38 39  1  0  0  0  0
 38 40  1  0  0  0  0
 40 41  1  0  0  0  0
 40 42  2  0  0  0  0
 42 43  1  0  0  0  0
 42 44  1  0  0  0  0
 44 45  1  0  0  0  0
 46 47  1  0  0  0  0
 46 49  2  0  0  0  0
 47 48  1  0  0  0  0
 47 50  1  0  0  0  0
 50 51  1  0  0  0  0
 50 52  1  0  0  0  0
 50 56  1  0  0  0  0
 52 53  1  0  0  0  0
 52 54  1  0  0  0  0
 52 55  1  0  0  0  0
 55 56  1  0  0  0  0
 55 59  1  0  0  0  0
 56 57  1  0  0  0  0
 56 58  1  0  0  0  0
 59 60  1  0  0  0  0
 59 64  2  0  0  0  0
 60 61  1  0  0  0  0
 60 62  1  0  0  0  0
 60 63  1  0  0  0  0
M  END
>  <Activity>
7.9492

>  <AM1_dipole>
5.45446

>  <AM1_E>
-159887

>  <AM1_Eele>
-1.35508e+006

>  <AM1_HF>
-71.5583

>  <AM1_HOMO>
-9.06175

>  <AM1_IP>
9.06175

>  <AM1_LUMO>
-0.91531

>  <diameter>
21

>  <petitjean>
0.47619

>  <petitjeanSC>
0.909091

>  <radius>
11

>  <VDistEq>
4.09216

>  <VDistMa>
10.1744

>  <weinerPath>
5313

>  <weinerPol>
64

>  <BCUT_PEOE_0>
-2.75988

>  <BCUT_PEOE_1>
-0.63032

>  <BCUT_PEOE_2>
0.594183

>  <BCUT_PEOE_3>
2.71573

>  <BCUT_SLOGP_0>
-2.94861

>  <BCUT_SLOGP_1>
-0.53808

>  <BCUT_SLOGP_2>
0.664767

>  <BCUT_SLOGP_3>
2.54405

>  <BCUT_SMR_0>
-2.48676

>  <BCUT_SMR_1>
-0.418651

>  <BCUT_SMR_2>
0.772571

>  <BCUT_SMR_3>
2.97764

>  <GCUT_PEOE_0>
-0.886469

>  <GCUT_PEOE_1>
-0.43675

>  <GCUT_PEOE_2>
0.080099

>  <GCUT_PEOE_3>
2.76279

>  <GCUT_SLOGP_0>
-1.1634

>  <GCUT_SLOGP_1>
-0.350366

>  <GCUT_SLOGP_2>
0.150116

>  <GCUT_SLOGP_3>
2.73293

>  <GCUT_SMR_0>
-0.568013

>  <GCUT_SMR_1>
-0.216057

>  <GCUT_SMR_2>
0.193051

>  <GCUT_SMR_3>
3.03227

>  <a_aro>
15

>  <a_count>
64

>  <a_IC>
110.187

>  <a_ICM>
1.72168

>  <a_nH>
26

>  <b_1rotN>
8

>  <b_1rotR>
0.190476

>  <b_ar>
16

>  <b_count>
68

>  <b_double>
5

>  <b_rotN>
9

>  <b_rotR>
0.214286

>  <b_single>
47

>  <b_triple>
0

>  <chi0v>
20.6996

>  <chi0v_C>
15.9388

>  <chi1v>
12.2817

>  <chi1v_C>
7.42654

>  <chiral>
0

>  <chiral_u>
0

>  <nmol>
1

>  <reactive>
0

>  <rings>
5

>  <Weight>
519.533

>  <a_heavy>
38

>  <a_nB>
0

>  <a_nBr>
0

>  <a_nC>
27

>  <a_nCl>
0

>  <a_nF>
1

>  <a_nI>
0

>  <a_nN>
5

>  <a_nO>
5

>  <a_nP>
0

>  <a_nS>
0

>  <b_heavy>
42

>  <chi0>
26.974

>  <chi0_C>
17.8277

>  <chi1>
18.2401

>  <chi1_C>
9.60176

>  <FCharge>
0

>  <VAdjEq>
0.320144

>  <VAdjMa>
6.39232

>  <zagreb>
206

>  <balabanJ>
1.13119

>  <PEOE_PC+>
3.62138

>  <PEOE_PC->
-3.62138

>  <PEOE_RPC+>
0.0814884

>  <PEOE_RPC->
0.0992118

>  <PEOE_VSA+0>
131.861

>  <PEOE_VSA+1>
103.836

>  <PEOE_VSA+2>
9.02085

>  <PEOE_VSA+3>
17.238

>  <PEOE_VSA+4>
12.9495

>  <PEOE_VSA+5>
47.3071

>  <PEOE_VSA+6>
0

>  <PEOE_VSA-0>
49.0196

>  <PEOE_VSA-1>
36.7647

>  <PEOE_VSA-2>
0

>  <PEOE_VSA-3>
0

>  <PEOE_VSA-4>
11.9086

>  <PEOE_VSA-5>
67.8346

>  <PEOE_VSA-6>
0.273782

>  <PEOE_VSA_FHYD>
0.712562

>  <PEOE_VSA_FNEG>
0.339748

>  <PEOE_VSA_FPNEG>
0.163965

>  <PEOE_VSA_FPOL>
0.287438

>  <PEOE_VSA_FPOS>
0.660252

>  <PEOE_VSA_FPPOS>
0.123473

>  <PEOE_VSA_HYD>
347.74

>  <PEOE_VSA_NEG>
165.801

>  <PEOE_VSA_PNEG>
80.017

>  <PEOE_VSA_POL>
140.274

>  <PEOE_VSA_POS>
322.212

>  <PEOE_VSA_PPOS>
60.2566

>  <PC+>
7.114

>  <PC->
-7.115

>  <Q_PC+>
7.114

>  <Q_PC->
-7.115

>  <Q_RPC+>
0.0922125

>  <Q_RPC->
0.0927618

>  <Q_VSA_FHYD>
0.498965

>  <Q_VSA_FNEG>
0.392035

>  <Q_VSA_FPNEG>
0.173597

>  <Q_VSA_FPOL>
0.501035

>  <Q_VSA_FPOS>
0.607965

>  <Q_VSA_FPPOS>
0.327439

>  <Q_VSA_HYD>
243.501

>  <Q_VSA_NEG>
191.318

>  <Q_VSA_PNEG>
84.7174

>  <Q_VSA_POL>
244.512

>  <Q_VSA_POS>
296.695

>  <Q_VSA_PPOS>
159.795

>  <RPC+>
0.0922125

>  <RPC->
0.0927618

>  <lip_acc>
10

>  <lip_don>
2

>  <lip_druglike>
1

>  <lip_violation>
1

>  <opr_brigid>
26

>  <opr_leadlike>
0

>  <opr_nring>
5

>  <opr_nrot>
7

>  <opr_violation>
3

>  <E>
127.351

>  <E_ang>
23.7103

>  <E_ele>
26.5505

>  <E_nb>
78.7272

>  <E_oop>
0.240828

>  <E_sol>
-32.1653

>  <E_stb>
0.495164

>  <E_str>
6.81368

>  <E_strain>
0.00739074

>  <E_tor>
17.3637

>  <E_vdw>
52.1768

>  <E_rele>
0

>  <E_rnb>
2.84217e-014

>  <E_rsol>
2.84217e-014

>  <E_rvdw>
0

>  <Kier1>
29.4909

>  <Kier2>
12.8869

>  <Kier3>
6.42857

>  <KierA1>
20.5604

>  <KierA2>
8.88994

>  <KierA3>
4.40202

>  <KierFlex>
4.81002

>  <logS>
-4.69348

>  <MNDO_dipole>
4.0636

>  <MNDO_E>
-160131

>  <MNDO_Eele>
-1.33904e+006

>  <MNDO_HF>
-113.728

>  <MNDO_HOMO>
-9.16088

>  <MNDO_IP>
9.16088

>  <MNDO_LUMO>
-0.95412

>  <apol>
74.9236

>  <bpol>
41.6764

>  <mr>
13.7213

>  <dipole>
1.39673

>  <dipoleX>
-0.556794

>  <dipoleY>
-0.95854

>  <dipoleZ>
0.849724

>  <pmi>
17706.3

>  <pmiX>
13778.2

>  <pmiY>
2920.64

>  <pmiZ>
1007.42

>  <rgyr>
5.83791

>  <a_acc>
5

>  <a_acid>
0

>  <a_base>
0

>  <a_don>
2

>  <a_hyd>
23

>  <vsa_acc>
67.8346

>  <vsa_acid>
0

>  <vsa_base>
0

>  <vsa_don>
11.3652

>  <vsa_hyd>
325.327

>  <vsa_other>
60.2566

>  <vsa_pol>
79.1998

>  <PM3_dipole>
3.93977

>  <PM3_E>
-145704

>  <PM3_Eele>
-1.33593e+006

>  <PM3_HF>
-135.147

>  <PM3_HOMO>
-9.14393

>  <PM3_IP>
9.14393

>  <PM3_LUMO>
-0.99864

>  <SlogP>
1.4348

>  <SlogP_VSA0>
18.0107

>  <SlogP_VSA1>
36.0957

>  <SlogP_VSA2>
77.6129

>  <SlogP_VSA3>
110.637

>  <SlogP_VSA4>
81.1434

>  <SlogP_VSA5>
0

>  <SlogP_VSA6>
0

>  <SlogP_VSA7>
145.434

>  <SlogP_VSA8>
0

>  <SlogP_VSA9>
48.2861

>  <SMR>
13.5021

>  <SMR_VSA0>
119.311

>  <SMR_VSA1>
24.3331

>  <SMR_VSA2>
43.9173

>  <SMR_VSA3>
13.5387

>  <SMR_VSA4>
4.7171

>  <SMR_VSA5>
140.717

>  <SMR_VSA6>
137.36

>  <SMR_VSA7>
33.326

>  <ASA>
785.9

>  <ASA+>
286.274

>  <ASA->
276.13

>  <ASA_H>
522.465

>  <ASA_P>
263.434

>  <CASA+>
2036.55

>  <CASA->
1964.66

>  <DASA>
10.1439

>  <DCASA>
71.8877

>  <FASA+>
0.364263

>  <FASA->
0.351355

>  <FASA_H>
0.664799

>  <FASA_P>
0.335201

>  <FCASA+>
2.59136

>  <FCASA->
2.49989

>  <VSA>
515.297

>  <TPSA>
122.89

>  <density>
0.789551

>  <vdw_area>
488.013

>  <vdw_vol>
658.011

>  <vsurf_A>
2.67219

>  <vsurf_CP>
0.0588601

>  <vsurf_CW1>
2.62461

>  <vsurf_CW2>
2.1769

>  <vsurf_CW3>
1.45169

>  <vsurf_CW4>
0.804505

>  <vsurf_CW5>
0.378946

>  <vsurf_CW6>
0.146772

>  <vsurf_CW7>
0.0295601

>  <vsurf_CW8>
0.0069149

>  <vsurf_D1>
970.75

>  <vsurf_D2>
566.25

>  <vsurf_D3>
420.375

>  <vsurf_D4>
356.75

>  <vsurf_D5>
308.625

>  <vsurf_D6>
253

>  <vsurf_D7>
152.875

>  <vsurf_D8>
83.5

>  <vsurf_DD12>
6.7082

>  <vsurf_DD13>
0.866025

>  <vsurf_DD23>
6.53835

>  <vsurf_DW12>
0.5

>  <vsurf_DW13>
0.707107

>  <vsurf_DW23>
0.866025

>  <vsurf_EDmin1>
-2.77515

>  <vsurf_EDmin2>
-2.7107

>  <vsurf_EDmin3>
-2.69129

>  <vsurf_EWmin1>
-7.23537

>  <vsurf_EWmin2>
-6.97373

>  <vsurf_EWmin3>
-6.81939

>  <vsurf_G>
1.42165

>  <vsurf_HB1>
473.125

>  <vsurf_HB2>
571.625

>  <vsurf_HB3>
478.875

>  <vsurf_HB4>
217.125

>  <vsurf_HB5>
82.625

>  <vsurf_HB6>
27.625

>  <vsurf_HB7>
7

>  <vsurf_HB8>
1.375

>  <vsurf_HL1>
0.223313

>  <vsurf_HL2>
0.0833917

>  <vsurf_ID1>
1.05528

>  <vsurf_ID2>
0.990509

>  <vsurf_ID3>
1.03283

>  <vsurf_ID4>
1.23292

>  <vsurf_ID5>
1.36048

>  <vsurf_ID6>
1.41178

>  <vsurf_ID7>
0.722554

>  <vsurf_ID8>
0.888285

>  <vsurf_IW1>
0.171467

>  <vsurf_IW2>
0.423572

>  <vsurf_IW3>
0.673383

>  <vsurf_IW4>
1.26741

>  <vsurf_IW5>
1.7368

>  <vsurf_IW6>
2.59656

>  <vsurf_IW7>
5.02919

>  <vsurf_IW8>
8.4081

>  <vsurf_R>
1.48915

>  <vsurf_S>
720.627

>  <vsurf_V>
1073.13

>  <vsurf_W1>
1766.38

>  <vsurf_W2>
1124.38

>  <vsurf_W3>
614.25

>  <vsurf_W4>
246.625

>  <vsurf_W5>
93.875

>  <vsurf_W6>
29.75

>  <vsurf_W7>
7

>  <vsurf_W8>
1.375

>  <vsurf_Wp1>
1293.25

>  <vsurf_Wp2>
552.75

>  <vsurf_Wp3>
135.375

>  <vsurf_Wp4>
29.5

>  <vsurf_Wp5>
11.25

>  <vsurf_Wp6>
2.125

>  <vsurf_Wp7>
0

>  <vsurf_Wp8>
0

>  <dens>
1.10216

>  <glob>
0.039018

>  <std_dim1>
6.01887

>  <std_dim2>
1.56789

>  <std_dim3>
1.18891

>  <vol>
471.375

>  <logP(o/w)>
0.75

$$$$
D11.cdx
  MOE2008           3D

 70 75  0  0  0  0  0  0  0  0999 V2000
   -4.8020   10.9970   -0.5590 C   0  0  0  0  0  0  0  0  0  0  0  0
   -5.6400   11.6880   -0.5390 H   0  0  0  0  0  0  0  0  0  0  0  0
   -4.7910    9.9350   -1.4560 C   0  0  0  0  0  0  0  0  0  0  0  0
   -5.6280    9.8100   -2.1390 H   0  0  0  0  0  0  0  0  0  0  0  0
   -3.7330    9.0130   -1.4710 C   0  0  0  0  0  0  0  0  0  0  0  0
   -2.6500    9.2480   -0.6030 C   0  0  0  0  0  0  0  0  0  0  0  0
   -2.6320   10.3080    0.3150 C   0  0  0  0  0  0  0  0  0  0  0  0
   -3.7420   11.1820    0.3300 C   0  0  0  0  0  0  0  0  0  0  0  0
   -1.4540    8.5800   -0.4670 N   0  0  0  0  0  0  0  0  0  0  0  0
   -1.1770    7.7810   -1.0230 H   0  0  0  0  0  0  0  0  0  0  0  0
   -0.7030    9.1470    0.5260 C   0  0  0  0  0  0  0  0  0  0  0  0
    0.2640    8.7280    0.7770 H   0  0  0  0  0  0  0  0  0  0  0  0
   -1.3990   10.2220    1.0490 C   0  0  0  0  0  0  0  0  0  0  0  0
   -0.9230   11.0830    2.1290 C   0  0  0  0  0  0  0  0  0  0  0  0
    0.4780   10.9020    2.6850 C   0  0  0  0  0  0  0  0  0  0  0  0
    1.4750   11.7230    2.1660 N   0  0  0  0  0  0  0  0  0  0  0  0
    2.8480   11.6090    2.6570 C   0  0  0  0  0  0  0  0  0  0  0  0
    3.0840   12.5530    3.1640 H   0  0  0  0  0  0  0  0  0  0  0  0
    2.9390   10.8050    3.3930 H   0  0  0  0  0  0  0  0  0  0  0  0
    3.8320   11.3750    1.5010 C   0  0  0  0  0  0  0  0  0  0  0  0
    3.6750   10.3790    1.0710 H   0  0  0  0  0  0  0  0  0  0  0  0
    4.8500   11.4210    1.8940 H   0  0  0  0  0  0  0  0  0  0  0  0
    3.6270   12.3430    0.4080 N   0  0  0  0  0  0  0  0  0  0  0  0
    2.2400   12.4910   -0.0480 C   0  0  0  0  0  0  0  0  0  0  0  0
    2.1470   13.2970   -0.7820 H   0  0  0  0  0  0  0  0  0  0  0  0
    1.9770   11.5540   -0.5530 H   0  0  0  0  0  0  0  0  0  0  0  0
    1.2800   12.7380    1.1220 C   0  0  0  0  0  0  0  0  0  0  0  0
    0.2510   12.7540    0.7570 H   0  0  0  0  0  0  0  0  0  0  0  0
    1.4870   13.7120    1.5810 H   0  0  0  0  0  0  0  0  0  0  0  0
    4.6230   13.0980   -0.2080 C   0  0  0  0  0  0  0  0  0  0  0  0
    6.0400   12.7960    0.0950 C   0  0  0  0  0  0  0  0  0  0  0  0
   -1.5940   11.9820    2.6260 O   0  0  0  0  0  0  0  0  0  0  0  0
    0.6430   10.0380    3.5400 O   0  0  0  0  0  0  0  0  0  0  0  0
    4.4070   14.0060   -1.0050 O   0  0  0  0  0  0  0  0  0  0  0  0
   -3.8090   12.2230    1.1700 F   0  0  0  0  0  0  0  0  0  0  0  0
    6.5730   11.5370   -0.2040 C   0  0  0  0  0  0  0  0  0  0  0  0
    5.9510   10.7630   -0.6460 H   0  0  0  0  0  0  0  0  0  0  0  0
    7.9170   11.2810    0.0620 C   0  0  0  0  0  0  0  0  0  0  0  0
    8.3400   10.3040   -0.1620 H   0  0  0  0  0  0  0  0  0  0  0  0
    8.7250   12.2810    0.6070 C   0  0  0  0  0  0  0  0  0  0  0  0
    9.7740   12.0800    0.8100 H   0  0  0  0  0  0  0  0  0  0  0  0
    8.1940   13.5440    0.8810 C   0  0  0  0  0  0  0  0  0  0  0  0
    8.8310   14.3220    1.2930 H   0  0  0  0  0  0  0  0  0  0  0  0
    6.8500   13.8070    0.6200 C   0  0  0  0  0  0  0  0  0  0  0  0
    6.4380   14.7930    0.8210 H   0  0  0  0  0  0  0  0  0  0  0  0
   -3.8090    7.9050   -2.4420 C   0  0  0  0  0  0  0  0  0  0  0  0
   -3.7780    6.6030   -2.0060 N   0  0  0  0  0  0  0  0  0  0  0  0
   -3.7470    5.9340   -2.7680 H   0  0  0  0  0  0  0  0  0  0  0  0
   -3.9240    8.1630   -3.6370 O   0  0  0  0  0  0  0  0  0  0  0  0
   -3.8240    6.0550   -0.6520 C   0  0  0  0  0  0  0  0  0  0  0  0
   -3.1510    5.1910   -0.6590 H   0  0  0  0  0  0  0  0  0  0  0  0
   -3.4380    6.7720    0.0740 H   0  0  0  0  0  0  0  0  0  0  0  0
   -5.2300    5.5900   -0.2550 C   0  0  0  0  0  0  0  0  0  0  0  0
   -5.1500    4.9430    0.6280 H   0  0  0  0  0  0  0  0  0  0  0  0
   -5.6690    4.9810   -1.0550 H   0  0  0  0  0  0  0  0  0  0  0  0
   -6.1340    6.7300    0.0840 C   0  0  0  0  0  0  0  0  0  0  0  0
   -7.0610    7.2210   -0.8030 N   0  0  0  0  0  0  0  0  0  0  0  0
   -7.2290    6.8550   -1.7310 H   0  0  0  0  0  0  0  0  0  0  0  0
   -7.7280    8.2940   -0.2570 C   0  0  0  0  0  0  0  0  0  0  0  0
   -7.2180    8.4840    1.0280 C   0  0  0  0  0  0  0  0  0  0  0  0
   -6.2290    7.4850    1.2360 C   0  0  0  0  0  0  0  0  0  0  0  0
   -5.6320    7.3510    2.1280 H   0  0  0  0  0  0  0  0  0  0  0  0
   -8.7230    9.1130   -0.8020 C   0  0  0  0  0  0  0  0  0  0  0  0
   -9.1040    8.9530   -1.8050 H   0  0  0  0  0  0  0  0  0  0  0  0
   -9.2060   10.1580   -0.0080 C   0  0  0  0  0  0  0  0  0  0  0  0
   -9.9780   10.8160   -0.4020 H   0  0  0  0  0  0  0  0  0  0  0  0
   -8.7160   10.3710    1.2790 C   0  0  0  0  0  0  0  0  0  0  0  0
   -9.1080   11.1900    1.8780 H   0  0  0  0  0  0  0  0  0  0  0  0
   -7.7230    9.5410    1.8100 C   0  0  0  0  0  0  0  0  0  0  0  0
   -7.3400    9.7170    2.8110 H   0  0  0  0  0  0  0  0  0  0  0  0
  1  2  1  0  0  0  0
  1  3  1  0  0  0  0
  1  8  2  0  0  0  0
  3  4  1  0  0  0  0
  3  5  2  0  0  0  0
  5  6  1  0  0  0  0
  5 46  1  0  0  0  0
  6  7  2  0  0  0  0
  6  9  1  0  0  0  0
  7  8  1  0  0  0  0
  7 13  1  0  0  0  0
  8 35  1  0  0  0  0
  9 10  1  0  0  0  0
  9 11  1  0  0  0  0
 11 12  1  0  0  0  0
 11 13  2  0  0  0  0
 13 14  1  0  0  0  0
 14 15  1  0  0  0  0
 14 32  2  0  0  0  0
 15 16  1  0  0  0  0
 15 33  2  0  0  0  0
 16 17  1  0  0  0  0
 16 27  1  0  0  0  0
 17 18  1  0  0  0  0
 17 19  1  0  0  0  0
 17 20  1  0  0  0  0
 20 21  1  0  0  0  0
 20 22  1  0  0  0  0
 20 23  1  0  0  0  0
 23 24  1  0  0  0  0
 23 30  1  0  0  0  0
 24 25  1  0  0  0  0
 24 26  1  0  0  0  0
 24 27  1  0  0  0  0
 27 28  1  0  0  0  0
 27 29  1  0  0  0  0
 30 31  1  0  0  0  0
 30 34  2  0  0  0  0
 31 36  1  0  0  0  0
 31 44  2  0  0  0  0
 36 37  1  0  0  0  0
 36 38  2  0  0  0  0
 38 39  1  0  0  0  0
 38 40  1  0  0  0  0
 40 41  1  0  0  0  0
 40 42  2  0  0  0  0
 42 43  1  0  0  0  0
 42 44  1  0  0  0  0
 44 45  1  0  0  0  0
 46 47  1  0  0  0  0
 46 49  2  0  0  0  0
 47 48  1  0  0  0  0
 47 50  1  0  0  0  0
 50 51  1  0  0  0  0
 50 52  1  0  0  0  0
 50 53  1  0  0  0  0
 53 54  1  0  0  0  0
 53 55  1  0  0  0  0
 53 56  1  0  0  0  0
 56 57  1  0  0  0  0
 56 61  2  0  0  0  0
 57 58  1  0  0  0  0
 57 59  1  0  0  0  0
 59 60  1  0  0  0  0
 59 63  2  0  0  0  0
 60 61  1  0  0  0  0
 60 69  2  0  0  0  0
 61 62  1  0  0  0  0
 63 64  1  0  0  0  0
 63 65  1  0  0  0  0
 65 66  1  0  0  0  0
 65 67  2  0  0  0  0
 67 68  1  0  0  0  0
 67 69  1  0  0  0  0
 69 70  1  0  0  0  0
M  END
>  <Activity>
8.9665

>  <AM1_dipole>
6.63097

>  <AM1_E>
-167900

>  <AM1_Eele>
-1.5268e+006

>  <AM1_HF>
-13.0582

>  <AM1_HOMO>
-8.50068

>  <AM1_IP>
8.50068

>  <AM1_LUMO>
-0.82386

>  <diameter>
23

>  <petitjean>
0.478261

>  <petitjeanSC>
0.916667

>  <radius>
12

>  <VDistEq>
4.25503

>  <VDistMa>
10.4567

>  <weinerPath>
7248

>  <weinerPol>
71

>  <BCUT_PEOE_0>
-2.71188

>  <BCUT_PEOE_1>
-0.638336

>  <BCUT_PEOE_2>
0.615142

>  <BCUT_PEOE_3>
2.65031

>  <BCUT_SLOGP_0>
-2.86001

>  <BCUT_SLOGP_1>
-0.53808

>  <BCUT_SLOGP_2>
0.750177

>  <BCUT_SLOGP_3>
2.50337

>  <BCUT_SMR_0>
-2.43203

>  <BCUT_SMR_1>
-0.426276

>  <BCUT_SMR_2>
0.788764

>  <BCUT_SMR_3>
2.92027

>  <GCUT_PEOE_0>
-0.86083

>  <GCUT_PEOE_1>
-0.440712

>  <GCUT_PEOE_2>
0.080099

>  <GCUT_PEOE_3>
2.77253

>  <GCUT_SLOGP_0>
-1.16113

>  <GCUT_SLOGP_1>
-0.346439

>  <GCUT_SLOGP_2>
0.164454

>  <GCUT_SLOGP_3>
2.77526

>  <GCUT_SMR_0>
-0.508984

>  <GCUT_SMR_1>
-0.216057

>  <GCUT_SMR_2>
0.193051

>  <GCUT_SMR_3>
3.0496

>  <a_aro>
24

>  <a_count>
70

>  <a_IC>
114.834

>  <a_ICM>
1.64049

>  <a_nH>
28

>  <b_1rotN>
9

>  <b_1rotR>
0.191489

>  <b_ar>
26

>  <b_count>
75

>  <b_double>
4

>  <b_rotN>
10

>  <b_rotR>
0.212766

>  <b_single>
45

>  <b_triple>
0

>  <chi0v>
22.6536

>  <chi0v_C>
18.2482

>  <chi1v>
13.7281

>  <chi1v_C>
9.3683

>  <chiral>
0

>  <chiral_u>
0

>  <nmol>
1

>  <reactive>
0

>  <rings>
6

>  <Weight>
565.605

>  <a_heavy>
42

>  <a_nB>
0

>  <a_nBr>
0

>  <a_nC>
32

>  <a_nCl>
0

>  <a_nF>
1

>  <a_nI>
0

>  <a_nN>
5

>  <a_nO>
4

>  <a_nP>
0

>  <a_nS>
0

>  <b_heavy>
47

>  <chi0>
29.2166

>  <chi0_C>
20.9406

>  <chi1>
20.4019

>  <chi1_C>
12.5825

>  <FCharge>
0

>  <VAdjEq>
0.300203

>  <VAdjMa>
6.55459

>  <zagreb>
228

>  <balabanJ>
0.974133

>  <PEOE_PC+>
3.61787

>  <PEOE_PC->
-3.61787

>  <PEOE_RPC+>
0.0815674

>  <PEOE_RPC->
0.0993079

>  <PEOE_VSA+0>
126.287

>  <PEOE_VSA+1>
100.69

>  <PEOE_VSA+2>
9.02085

>  <PEOE_VSA+3>
25.857

>  <PEOE_VSA+4>
0

>  <PEOE_VSA+5>
47.3071

>  <PEOE_VSA+6>
0

>  <PEOE_VSA-0>
75.738

>  <PEOE_VSA-1>
73.5294

>  <PEOE_VSA-2>
0

>  <PEOE_VSA-3>
0

>  <PEOE_VSA-4>
11.9086

>  <PEOE_VSA-5>
54.2677

>  <PEOE_VSA-6>
0.410673

>  <PEOE_VSA_FHYD>
0.783065

>  <PEOE_VSA_FNEG>
0.411139

>  <PEOE_VSA_FPNEG>
0.126829

>  <PEOE_VSA_FPOL>
0.216935

>  <PEOE_VSA_FPOS>
0.588861

>  <PEOE_VSA_FPPOS>
0.0901061

>  <PEOE_VSA_HYD>
411.122

>  <PEOE_VSA_NEG>
215.854

>  <PEOE_VSA_PNEG>
66.587

>  <PEOE_VSA_POL>
113.894

>  <PEOE_VSA_POS>
309.161

>  <PEOE_VSA_PPOS>
47.3071

>  <PC+>
7.342

>  <PC->
-7.344

>  <Q_PC+>
7.342

>  <Q_PC->
-7.344

>  <Q_RPC+>
0.0893489

>  <Q_RPC->
0.0994009

>  <Q_VSA_FHYD>
0.586725

>  <Q_VSA_FNEG>
0.480795

>  <Q_VSA_FPNEG>
0.148281

>  <Q_VSA_FPOL>
0.413275

>  <Q_VSA_FPOS>
0.519205

>  <Q_VSA_FPPOS>
0.264994

>  <Q_VSA_HYD>
308.04

>  <Q_VSA_NEG>
252.425

>  <Q_VSA_PNEG>
77.85

>  <Q_VSA_POL>
216.976

>  <Q_VSA_POS>
272.591

>  <Q_VSA_PPOS>
139.126

>  <RPC+>
0.0893489

>  <RPC->
0.0994009

>  <lip_acc>
9

>  <lip_don>
3

>  <lip_druglike>
1

>  <lip_violation>
1

>  <opr_brigid>
32

>  <opr_leadlike>
0

>  <opr_nring>
6

>  <opr_nrot>
9

>  <opr_violation>
3

>  <E>
122.084

>  <E_ang>
15.6466

>  <E_ele>
31.3124

>  <E_nb>
91.2029

>  <E_oop>
0.105382

>  <E_sol>
-28.8428

>  <E_stb>
-0.0882862

>  <E_str>
8.66923

>  <E_strain>
0.00703615

>  <E_tor>
6.54818

>  <E_vdw>
59.8906

>  <E_rele>
0

>  <E_rnb>
4.26326e-014

>  <E_rsol>
4.26326e-014

>  <E_rvdw>
0

>  <Kier1>
31.9611

>  <Kier2>
14.6135

>  <Kier3>
7.21471

>  <KierA1>
21.7635

>  <KierA2>
9.85005

>  <KierA3>
4.82859

>  <KierFlex>
5.10408

>  <logS>
-6.74289

>  <MNDO_dipole>
0

>  <apol>
84.2552

>  <bpol>
41.5848

>  <mr>
15.707

>  <dipole>
1.85934

>  <dipoleX>
0.85036

>  <dipoleY>
-1.64594

>  <dipoleZ>
-0.157805

>  <pmi>
18368.3

>  <pmiX>
14347.5

>  <pmiY>
2760.85

>  <pmiZ>
1259.96

>  <rgyr>
5.69873

>  <a_acc>
4

>  <a_acid>
0

>  <a_base>
0

>  <a_don>
3

>  <a_hyd>
29

>  <vsa_acc>
54.2677

>  <vsa_acid>
0

>  <vsa_base>
0

>  <vsa_don>
17.0477

>  <vsa_hyd>
379.378

>  <vsa_other>
47.3071

>  <vsa_pol>
71.3154

>  <PM3_dipole>
6.09293

>  <PM3_E>
-153297

>  <PM3_Eele>
-1.51407e+006

>  <PM3_HF>
-52.0846

>  <PM3_HOMO>
-8.66278

>  <PM3_IP>
8.66278

>  <PM3_LUMO>
-0.89493

>  <SlogP>
3.92807

>  <SlogP_VSA0>
18.0107

>  <SlogP_VSA1>
27.7126

>  <SlogP_VSA2>
66.5543

>  <SlogP_VSA3>
92.1979

>  <SlogP_VSA4>
83.9001

>  <SlogP_VSA5>
18.8684

>  <SlogP_VSA6>
0

>  <SlogP_VSA7>
238.367

>  <SlogP_VSA8>
0

>  <SlogP_VSA9>
14.9601

>  <SMR>
15.5849

>  <SMR_VSA0>
95.4489

>  <SMR_VSA1>
21.2087

>  <SMR_VSA2>
60.7028

>  <SMR_VSA3>
12.3135

>  <SMR_VSA4>
9.4342

>  <SMR_VSA5>
247.801

>  <SMR_VSA6>
113.662

>  <SMR_VSA7>
0

>  <ASA>
828.713

>  <ASA+>
357.777

>  <ASA->
315.951

>  <ASA_H>
600.5

>  <ASA_P>
228.213

>  <CASA+>
2626.8

>  <CASA->
2320.34

>  <DASA>
41.8268

>  <DCASA>
306.461

>  <FASA+>
0.431726

>  <FASA->
0.381254

>  <FASA_H>
0.724617

>  <FASA_P>
0.275383

>  <FCASA+>
3.16973

>  <FCASA->
2.79993

>  <VSA>
571.02

>  <TPSA>
118.37

>  <density>
0.764476

>  <vdw_area>
525.016

>  <vdw_vol>
739.859

>  <vsurf_A>
1.84878

>  <vsurf_CP>
0.0729839

>  <vsurf_CW1>
2.56228

>  <vsurf_CW2>
2.09461

>  <vsurf_CW3>
1.32141

>  <vsurf_CW4>
0.702673

>  <vsurf_CW5>
0.332564

>  <vsurf_CW6>
0.120587

>  <vsurf_CW7>
0.0227333

>  <vsurf_CW8>
0.00559675

>  <vsurf_D1>
1079.13

>  <vsurf_D2>
634

>  <vsurf_D3>
479.25

>  <vsurf_D4>
414.625

>  <vsurf_D5>
362.375

>  <vsurf_D6>
298.25

>  <vsurf_D7>
169.625

>  <vsurf_D8>
88.5

>  <vsurf_DD12>
0.5

>  <vsurf_DD13>
0.5

>  <vsurf_DD23>
0.707107

>  <vsurf_DW12>
0.5

>  <vsurf_DW13>
1.11803

>  <vsurf_DW23>
1.22474

>  <vsurf_EDmin1>
-2.84134

>  <vsurf_EDmin2>
-2.83859

>  <vsurf_EDmin3>
-2.78129

>  <vsurf_EWmin1>
-6.6422

>  <vsurf_EWmin2>
-6.61118

>  <vsurf_EWmin3>
-6.57033

>  <vsurf_G>
1.41773

>  <vsurf_HB1>
388

>  <vsurf_HB2>
435.375

>  <vsurf_HB3>
402

>  <vsurf_HB4>
172.125

>  <vsurf_HB5>
62.375

>  <vsurf_HB6>
19.875

>  <vsurf_HB7>
5.375

>  <vsurf_HB8>
1.125

>  <vsurf_HL1>
0.176839

>  <vsurf_HL2>
0.0642147

>  <vsurf_ID1>
0.659828

>  <vsurf_ID2>
0.644278

>  <vsurf_ID3>
0.656465

>  <vsurf_ID4>
0.735928

>  <vsurf_ID5>
0.772679

>  <vsurf_ID6>
0.673242

>  <vsurf_ID7>
0.747003

>  <vsurf_ID8>
0.852344

>  <vsurf_IW1>
0.433385

>  <vsurf_IW2>
0.503777

>  <vsurf_IW3>
0.704936

>  <vsurf_IW4>
0.855051

>  <vsurf_IW5>
1.3849

>  <vsurf_IW6>
2.52568

>  <vsurf_IW7>
6.0761

>  <vsurf_IW8>
7.60898

>  <vsurf_R>
1.53878

>  <vsurf_S>
763.105

>  <vsurf_V>
1174.25

>  <vsurf_W1>
1797.13

>  <vsurf_W2>
1097.75

>  <vsurf_W3>
581.75

>  <vsurf_W4>
226.625

>  <vsurf_W5>
84.75

>  <vsurf_W6>
26.625

>  <vsurf_W7>
5.375

>  <vsurf_W8>
1.125

>  <vsurf_Wp1>
1409.13

>  <vsurf_Wp2>
662.375

>  <vsurf_Wp3>
179.75

>  <vsurf_Wp4>
54.5

>  <vsurf_Wp5>
22.375

>  <vsurf_Wp6>
6.75

>  <vsurf_Wp7>
0

>  <vsurf_Wp8>
0

>  <dens>
1.07837

>  <glob>
0.0542043

>  <std_dim1>
5.62903

>  <std_dim2>
1.91473

>  <std_dim3>
1.31054

>  <vol>
524.5

>  <logP(o/w)>
3.774

$$$$
D11.cdx
  MOE2008           3D

 58 61  0  0  0  0  0  0  0  0999 V2000
   -3.0610    8.0420    1.1280 C   0  0  0  0  0  0  0  0  0  0  0  0
   -3.7130    8.9110    1.1390 H   0  0  0  0  0  0  0  0  0  0  0  0
   -3.4440    6.8680    1.7700 C   0  0  0  0  0  0  0  0  0  0  0  0
   -4.3960    6.8420    2.2970 H   0  0  0  0  0  0  0  0  0  0  0  0
   -2.6210    5.7320    1.7460 C   0  0  0  0  0  0  0  0  0  0  0  0
   -1.3720    5.8510    1.1080 C   0  0  0  0  0  0  0  0  0  0  0  0
   -0.9540    7.0140    0.4550 C   0  0  0  0  0  0  0  0  0  0  0  0
   -1.8320    8.1190    0.4650 C   0  0  0  0  0  0  0  0  0  0  0  0
   -0.3570    4.9290    0.9940 N   0  0  0  0  0  0  0  0  0  0  0  0
   -0.3860    4.0020    1.4030 H   0  0  0  0  0  0  0  0  0  0  0  0
    0.6730    5.4510    0.2630 C   0  0  0  0  0  0  0  0  0  0  0  0
    1.5520    4.8510    0.0640 H   0  0  0  0  0  0  0  0  0  0  0  0
    0.3500    6.7500   -0.0900 C   0  0  0  0  0  0  0  0  0  0  0  0
    1.2130    7.6430   -0.8560 C   0  0  0  0  0  0  0  0  0  0  0  0
    2.5480    7.1410   -1.3860 C   0  0  0  0  0  0  0  0  0  0  0  0
    3.6960    7.6190   -0.7560 N   0  0  0  0  0  0  0  0  0  0  0  0
    5.0080    7.2140   -1.2590 C   0  0  0  0  0  0  0  0  0  0  0  0
    5.2980    6.3180   -0.6970 H   0  0  0  0  0  0  0  0  0  0  0  0
    4.9380    6.9330   -2.3150 H   0  0  0  0  0  0  0  0  0  0  0  0
    6.0550    8.3160   -1.0730 C   0  0  0  0  0  0  0  0  0  0  0  0
    5.7740    9.1900   -1.6730 H   0  0  0  0  0  0  0  0  0  0  0  0
    7.0330    7.9650   -1.4170 H   0  0  0  0  0  0  0  0  0  0  0  0
    6.1530    8.7690    0.3230 N   0  0  0  0  0  0  0  0  0  0  0  0
    4.9900    8.5230    1.1800 C   0  0  0  0  0  0  0  0  0  0  0  0
    5.1470    7.5420    1.6450 H   0  0  0  0  0  0  0  0  0  0  0  0
    4.9520    9.2650    1.9850 H   0  0  0  0  0  0  0  0  0  0  0  0
    3.6730    8.5270    0.3980 C   0  0  0  0  0  0  0  0  0  0  0  0
    3.4770    9.5300    0.0030 H   0  0  0  0  0  0  0  0  0  0  0  0
    2.8440    8.2600    1.0620 H   0  0  0  0  0  0  0  0  0  0  0  0
    7.2730    9.3810    0.8860 C   0  0  0  0  0  0  0  0  0  0  0  0
    8.3890    9.7750   -0.0030 C   0  0  0  0  0  0  0  0  0  0  0  0
    0.9420    8.8170   -1.0910 O   0  0  0  0  0  0  0  0  0  0  0  0
    2.5260    6.3510   -2.3230 O   0  0  0  0  0  0  0  0  0  0  0  0
    7.4010    9.6090    2.0850 O   0  0  0  0  0  0  0  0  0  0  0  0
   -1.5220    9.2740   -0.1390 F   0  0  0  0  0  0  0  0  0  0  0  0
    9.6640    9.2570    0.2470 C   0  0  0  0  0  0  0  0  0  0  0  0
    9.8260    8.5650    1.0690 H   0  0  0  0  0  0  0  0  0  0  0  0
   10.7320    9.6370   -0.5650 C   0  0  0  0  0  0  0  0  0  0  0  0
   11.7260    9.2360   -0.3800 H   0  0  0  0  0  0  0  0  0  0  0  0
   10.5280   10.5390   -1.6120 C   0  0  0  0  0  0  0  0  0  0  0  0
   11.3630   10.8350   -2.2420 H   0  0  0  0  0  0  0  0  0  0  0  0
    9.2580   11.0710   -1.8440 C   0  0  0  0  0  0  0  0  0  0  0  0
    9.1080   11.7840   -2.6510 H   0  0  0  0  0  0  0  0  0  0  0  0
    8.1860   10.6980   -1.0340 C   0  0  0  0  0  0  0  0  0  0  0  0
    7.2050   11.1340   -1.2030 H   0  0  0  0  0  0  0  0  0  0  0  0
   -3.0220    4.4890    2.4420 C   0  0  0  0  0  0  0  0  0  0  0  0
   -4.2540    3.9260    2.2170 N   0  0  0  0  0  0  0  0  0  0  0  0
   -4.4580    3.1510    2.8380 H   0  0  0  0  0  0  0  0  0  0  0  0
   -2.2050    3.9570    3.1890 O   0  0  0  0  0  0  0  0  0  0  0  0
   -5.2560    4.2670    1.2130 C   0  0  0  0  0  0  0  0  0  0  0  0
   -6.1270    4.6540    1.7530 H   0  0  0  0  0  0  0  0  0  0  0  0
   -4.8840    5.0480    0.5460 H   0  0  0  0  0  0  0  0  0  0  0  0
   -5.6380    3.0400    0.3790 C   0  0  0  0  0  0  0  0  0  0  0  0
   -6.0210    2.2450    1.0290 H   0  0  0  0  0  0  0  0  0  0  0  0
   -4.7480    2.6440   -0.1230 H   0  0  0  0  0  0  0  0  0  0  0  0
   -6.6430    3.3720   -0.6270 N   0  0  0  0  0  0  0  0  0  0  0  0
   -7.5110    3.6550   -0.1720 H   0  0  0  0  0  0  0  0  0  0  0  0
   -6.8700    2.5370   -1.1670 H   0  0  0  0  0  0  0  0  0  0  0  0
  1  2  1  0  0  0  0
  1  3  1  0  0  0  0
  1  8  2  0  0  0  0
  3  4  1  0  0  0  0
  3  5  2  0  0  0  0
  5  6  1  0  0  0  0
  5 46  1  0  0  0  0
  6  7  2  0  0  0  0
  6  9  1  0  0  0  0
  7  8  1  0  0  0  0
  7 13  1  0  0  0  0
  8 35  1  0  0  0  0
  9 10  1  0  0  0  0
  9 11  1  0  0  0  0
 11 12  1  0  0  0  0
 11 13  2  0  0  0  0
 13 14  1  0  0  0  0
 14 15  1  0  0  0  0
 14 32  2  0  0  0  0
 15 16  1  0  0  0  0
 15 33  2  0  0  0  0
 16 17  1  0  0  0  0
 16 27  1  0  0  0  0
 17 18  1  0  0  0  0
 17 19  1  0  0  0  0
 17 20  1  0  0  0  0
 20 21  1  0  0  0  0
 20 22  1  0  0  0  0
 20 23  1  0  0  0  0
 23 24  1  0  0  0  0
 23 30  1  0  0  0  0
 24 25  1  0  0  0  0
 24 26  1  0  0  0  0
 24 27  1  0  0  0  0
 27 28  1  0  0  0  0
 27 29  1  0  0  0  0
 30 31  1  0  0  0  0
 30 34  2  0  0  0  0
 31 36  1  0  0  0  0
 31 44  2  0  0  0  0
 36 37  1  0  0  0  0
 36 38  2  0  0  0  0
 38 39  1  0  0  0  0
 38 40  1  0  0  0  0
 40 41  1  0  0  0  0
 40 42  2  0  0  0  0
 42 43  1  0  0  0  0
 42 44  1  0  0  0  0
 44 45  1  0  0  0  0
 46 47  1  0  0  0  0
 46 49  2  0  0  0  0
 47 48  1  0  0  0  0
 47 50  1  0  0  0  0
 50 51  1  0  0  0  0
 50 52  1  0  0  0  0
 50 53  1  0  0  0  0
 53 54  1  0  0  0  0
 53 55  1  0  0  0  0
 53 56  1  0  0  0  0
 56 57  1  0  0  0  0
 56 58  1  0  0  0  0
M  END
>  <Activity>
7.8917

>  <AM1_dipole>
4.96757

>  <AM1_E>
-143042

>  <AM1_Eele>
-1.12741e+006

>  <AM1_HF>
-76.5567

>  <AM1_HOMO>
-9.00134

>  <AM1_IP>
9.00134

>  <AM1_LUMO>
-0.88552

>  <diameter>
19

>  <petitjean>
0.473684

>  <petitjeanSC>
0.9

>  <radius>
10

>  <VDistEq>
3.9197

>  <VDistMa>
9.85798

>  <weinerPath>
3813

>  <weinerPol>
58

>  <BCUT_PEOE_0>
-2.71188

>  <BCUT_PEOE_1>
-0.638163

>  <BCUT_PEOE_2>
0.614539

>  <BCUT_PEOE_3>
2.65031

>  <BCUT_SLOGP_0>
-2.86001

>  <BCUT_SLOGP_1>
-0.53808

>  <BCUT_SLOGP_2>
0.74981

>  <BCUT_SLOGP_3>
2.50336

>  <BCUT_SMR_0>
-2.43203

>  <BCUT_SMR_1>
-0.426135

>  <BCUT_SMR_2>
0.787524

>  <BCUT_SMR_3>
2.92027

>  <GCUT_PEOE_0>
-0.858506

>  <GCUT_PEOE_1>
-0.417716

>  <GCUT_PEOE_2>
0.080099

>  <GCUT_PEOE_3>
2.72268

>  <GCUT_SLOGP_0>
-1.36331

>  <GCUT_SLOGP_1>
-0.350367

>  <GCUT_SLOGP_2>
0.164454

>  <GCUT_SLOGP_3>
2.69707

>  <GCUT_SMR_0>
-0.509042

>  <GCUT_SMR_1>
-0.216057

>  <GCUT_SMR_2>
0.193051

>  <GCUT_SMR_3>
2.99374

>  <a_aro>
15

>  <a_count>
58

>  <a_IC>
100.075

>  <a_ICM>
1.72543

>  <a_nH>
24

>  <b_1rotN>
8

>  <b_1rotR>
0.216216

>  <b_ar>
16

>  <b_count>
61

>  <b_double>
4

>  <b_rotN>
9

>  <b_rotR>
0.243243

>  <b_single>
41

>  <b_triple>
0

>  <chi0v>
18.3442

>  <chi0v_C>
13.8614

>  <chi1v>
10.8781

>  <chi1v_C>
6.61004

>  <chiral>
0

>  <chiral_u>
0

>  <nmol>
1

>  <reactive>
0

>  <rings>
4

>  <Weight>
465.485

>  <a_heavy>
34

>  <a_nB>
0

>  <a_nBr>
0

>  <a_nC>
24

>  <a_nCl>
0

>  <a_nF>
1

>  <a_nI>
0

>  <a_nN>
5

>  <a_nO>
4

>  <a_nP>
0

>  <a_nS>
0

>  <b_heavy>
37

>  <chi0>
24.2419

>  <chi0_C>
15.673

>  <chi1>
16.4179

>  <chi1_C>
8.70791

>  <FCharge>
0

>  <VAdjEq>
0.343176

>  <VAdjMa>
6.20945

>  <zagreb>
178

>  <balabanJ>
1.31539

>  <PEOE_PC+>
3.34284

>  <PEOE_PC->
-3.34284

>  <PEOE_RPC+>
0.0882784

>  <PEOE_RPC->
0.107479

>  <PEOE_VSA+0>
117.378

>  <PEOE_VSA+1>
79.3628

>  <PEOE_VSA+2>
26.2589

>  <PEOE_VSA+3>
17.238

>  <PEOE_VSA+4>
0

>  <PEOE_VSA+5>
47.3071

>  <PEOE_VSA+6>
0

>  <PEOE_VSA-0>
49.0196

>  <PEOE_VSA-1>
36.7647

>  <PEOE_VSA-2>
0

>  <PEOE_VSA-3>
0

>  <PEOE_VSA-4>
11.9086

>  <PEOE_VSA-5>
54.2677

>  <PEOE_VSA-6>
6.9249

>  <PEOE_VSA_FHYD>
0.730287

>  <PEOE_VSA_FNEG>
0.355902

>  <PEOE_VSA_FPNEG>
0.163746

>  <PEOE_VSA_FPOL>
0.269713

>  <PEOE_VSA_FPOS>
0.644098

>  <PEOE_VSA_FPPOS>
0.105967

>  <PEOE_VSA_HYD>
326.023

>  <PEOE_VSA_NEG>
158.886

>  <PEOE_VSA_PNEG>
73.1012

>  <PEOE_VSA_POL>
120.408

>  <PEOE_VSA_POS>
287.545

>  <PEOE_VSA_PPOS>
47.3071

>  <PC+>
7.099

>  <PC->
-7.1

>  <Q_PC+>
7.099

>  <Q_PC->
-7.1

>  <Q_RPC+>
0.0924074

>  <Q_RPC->
0.139437

>  <Q_VSA_FHYD>
0.465228

>  <Q_VSA_FNEG>
0.41306

>  <Q_VSA_FPNEG>
0.174275

>  <Q_VSA_FPOL>
0.534772

>  <Q_VSA_FPOS>
0.58694

>  <Q_VSA_FPPOS>
0.360497

>  <Q_VSA_HYD>
207.692

>  <Q_VSA_NEG>
184.403

>  <Q_VSA_PNEG>
77.8016

>  <Q_VSA_POL>
238.739

>  <Q_VSA_POS>
262.028

>  <Q_VSA_PPOS>
160.937

>  <RPC+>
0.0924074

>  <RPC->
0.139437

>  <lip_acc>
9

>  <lip_don>
3

>  <lip_druglike>
1

>  <lip_violation>
0

>  <opr_brigid>
22

>  <opr_leadlike>
0

>  <opr_nring>
4

>  <opr_nrot>
8

>  <opr_violation>
2

>  <E>
108.815

>  <E_ang>
12.62

>  <E_ele>
32.6533

>  <E_nb>
85.0728

>  <E_oop>
0.138294

>  <E_sol>
-25.7706

>  <E_stb>
0.651295

>  <E_str>
6.74952

>  <E_strain>
0.00581017

>  <E_tor>
3.58349

>  <E_vdw>
52.4195

>  <E_rele>
0

>  <E_rnb>
5.68434e-014

>  <E_rsol>
5.68434e-014

>  <E_rvdw>
0

>  <Kier1>
27.046

>  <Kier2>
12.497

>  <Kier3>
6.12346

>  <KierA1>
18.888

>  <KierA2>
8.62489

>  <KierA3>
4.19108

>  <KierFlex>
4.79137

>  <logS>
-4.16206

>  <MNDO_dipole>
4.02534

>  <MNDO_E>
-143219

>  <MNDO_Eele>
-1.12399e+006

>  <MNDO_HF>
-94.2163

>  <MNDO_HOMO>
-9.11143

>  <MNDO_IP>
9.11143

>  <MNDO_LUMO>
-0.92184

>  <apol>
67.508

>  <bpol>
35.892

>  <mr>
12.4452

>  <dipole>
1.12253

>  <dipoleX>
-0.631788

>  <dipoleY>
-0.915401

>  <dipoleZ>
-0.151485

>  <pmi>
14963.6

>  <pmiX>
11773

>  <pmiY>
2340.19

>  <pmiZ>
850.451

>  <rgyr>
5.66977

>  <a_acc>
5

>  <a_acid>
0

>  <a_base>
0

>  <a_don>
3

>  <a_hyd>
21

>  <vsa_acc>
54.2677

>  <vsa_acid>
0

>  <vsa_base>
0

>  <vsa_don>
11.3652

>  <vsa_hyd>
289.219

>  <vsa_other>
47.3071

>  <vsa_pol>
83.3753

>  <PM3_dipole>
4.77567

>  <PM3_E>
-130034

>  <PM3_Eele>
-1.10773e+006

>  <PM3_HF>
-111.075

>  <PM3_HOMO>
-9.02689

>  <PM3_IP>
9.02689

>  <PM3_LUMO>
-0.92404

>  <SlogP>
1.1628

>  <SlogP_VSA0>
50.9079

>  <SlogP_VSA1>
27.7126

>  <SlogP_VSA2>
49.7688

>  <SlogP_VSA3>
110.637

>  <SlogP_VSA4>
81.1434

>  <SlogP_VSA5>
0

>  <SlogP_VSA6>
0

>  <SlogP_VSA7>
145.434

>  <SlogP_VSA8>
0

>  <SlogP_VSA9>
14.9601

>  <SMR>
12.29

>  <SMR_VSA0>
95.4489

>  <SMR_VSA1>
21.2087

>  <SMR_VSA2>
43.9173

>  <SMR_VSA3>
9.55672

>  <SMR_VSA4>
37.6143

>  <SMR_VSA5>
140.717

>  <SMR_VSA6>
132.101

>  <SMR_VSA7>
0

>  <ASA>
752.004

>  <ASA+>
308.756

>  <ASA->
274.869

>  <ASA_H>
474.213

>  <ASA_P>
277.791

>  <CASA+>
2191.86

>  <CASA->
1951.57

>  <DASA>
33.8862

>  <DCASA>
240.283

>  <FASA+>
0.410577

>  <FASA->
0.365516

>  <FASA_H>
0.630599

>  <FASA_P>
0.369401

>  <FCASA+>
2.91469

>  <FCASA->
2.59516

>  <VSA>
470.867

>  <TPSA>
128.6

>  <density>
0.783369

>  <vdw_area>
446.431

>  <vdw_vol>
594.209

>  <vsurf_A>
4.50429

>  <vsurf_CP>
0.0525165

>  <vsurf_CW1>
2.70593

>  <vsurf_CW2>
2.33006

>  <vsurf_CW3>
1.6365

>  <vsurf_CW4>
0.875477

>  <vsurf_CW5>
0.400602

>  <vsurf_CW6>
0.138201

>  <vsurf_CW7>
0.0241433

>  <vsurf_CW8>
0.0045376

>  <vsurf_D1>
874.25

>  <vsurf_D2>
507.375

>  <vsurf_D3>
374.5

>  <vsurf_D4>
310.5

>  <vsurf_D5>
263

>  <vsurf_D6>
212.75

>  <vsurf_D7>
127.875

>  <vsurf_D8>
71

>  <vsurf_DD12>
6.7082

>  <vsurf_DD13>
6.72681

>  <vsurf_DD23>
0.5

>  <vsurf_DW12>
0.707107

>  <vsurf_DW13>
0.5

>  <vsurf_DW23>
0.866025

>  <vsurf_EDmin1>
-2.70328

>  <vsurf_EDmin2>
-2.59784

>  <vsurf_EDmin3>
-2.5561

>  <vsurf_EWmin1>
-6.71336

>  <vsurf_EWmin2>
-6.70066

>  <vsurf_EWmin3>
-6.35539

>  <vsurf_G>
1.43545

>  <vsurf_HB1>
415.625

>  <vsurf_HB2>
507.625

>  <vsurf_HB3>
443.75

>  <vsurf_HB4>
196.5

>  <vsurf_HB5>
73.5

>  <vsurf_HB6>
22.375

>  <vsurf_HB7>
4.875

>  <vsurf_HB8>
1.125

>  <vsurf_HL1>
0.244326

>  <vsurf_HL2>
0.0829308

>  <vsurf_ID1>
1.753

>  <vsurf_ID2>
1.60656

>  <vsurf_ID3>
1.90461

>  <vsurf_ID4>
2.3129

>  <vsurf_ID5>
2.81514

>  <vsurf_ID6>
2.82059

>  <vsurf_ID7>
1.54424

>  <vsurf_ID8>
1.24718

>  <vsurf_IW1>
0.841132

>  <vsurf_IW2>
1.77171

>  <vsurf_IW3>
2.18502

>  <vsurf_IW4>
2.55056

>  <vsurf_IW5>
2.72427

>  <vsurf_IW6>
3.28032

>  <vsurf_IW7>
6.84967

>  <vsurf_IW8>
8.88685

>  <vsurf_R>
1.42997

>  <vsurf_S>
684.019

>  <vsurf_V>
978.125

>  <vsurf_W1>
1774.63

>  <vsurf_W2>
1170.75

>  <vsurf_W3>
648.125

>  <vsurf_W4>
250.875

>  <vsurf_W5>
91.5

>  <vsurf_W6>
25.75

>  <vsurf_W7>
4.875

>  <vsurf_W8>
1.125

>  <vsurf_Wp1>
1359

>  <vsurf_Wp2>
663.125

>  <vsurf_Wp3>
204.375

>  <vsurf_Wp4>
54.375

>  <vsurf_Wp5>
18

>  <vsurf_Wp6>
3.375

>  <vsurf_Wp7>
0

>  <vsurf_Wp8>
0

>  <dens>
1.0972

>  <glob>
0.0425675

>  <std_dim1>
5.95534

>  <std_dim2>
1.33334

>  <std_dim3>
1.2287

>  <vol>
424.25

>  <logP(o/w)>
0.615

$$$$
D11.cdx
  MOE2008           3D

 64 67  0  0  0  0  0  0  0  0999 V2000
   -2.8850    2.0700   -2.2700 C   0  0  0  0  0  0  0  0  0  0  0  0
   -3.6250    2.6470   -2.8190 H   0  0  0  0  0  0  0  0  0  0  0  0
   -3.2870    1.0560   -1.4030 C   0  0  0  0  0  0  0  0  0  0  0  0
   -4.3480    0.8430   -1.3240 H   0  0  0  0  0  0  0  0  0  0  0  0
   -2.3530    0.3080   -0.6710 C   0  0  0  0  0  0  0  0  0  0  0  0
   -0.9900    0.5750   -0.9340 C   0  0  0  0  0  0  0  0  0  0  0  0
   -0.5480    1.5840   -1.7950 C   0  0  0  0  0  0  0  0  0  0  0  0
   -1.5300    2.3490   -2.4580 C   0  0  0  0  0  0  0  0  0  0  0  0
    0.1340   -0.0630   -0.4530 N   0  0  0  0  0  0  0  0  0  0  0  0
    0.1000   -0.8620    0.1710 H   0  0  0  0  0  0  0  0  0  0  0  0
    1.2660    0.5290   -0.9430 C   0  0  0  0  0  0  0  0  0  0  0  0
    2.2400    0.1550   -0.6540 H   0  0  0  0  0  0  0  0  0  0  0  0
    0.8910    1.5670   -1.7780 C   0  0  0  0  0  0  0  0  0  0  0  0
    1.8160    2.4560   -2.4770 C   0  0  0  0  0  0  0  0  0  0  0  0
    3.3110    2.1830   -2.4440 C   0  0  0  0  0  0  0  0  0  0  0  0
    4.0600    2.9010   -1.5130 N   0  0  0  0  0  0  0  0  0  0  0  0
    5.5080    2.7050   -1.4630 C   0  0  0  0  0  0  0  0  0  0  0  0
    5.6870    1.8630   -0.7830 H   0  0  0  0  0  0  0  0  0  0  0  0
    5.8810    2.4140   -2.4510 H   0  0  0  0  0  0  0  0  0  0  0  0
    6.2470    3.9500   -0.9630 C   0  0  0  0  0  0  0  0  0  0  0  0
    6.1030    4.7710   -1.6750 H   0  0  0  0  0  0  0  0  0  0  0  0
    7.3190    3.7420   -0.8920 H   0  0  0  0  0  0  0  0  0  0  0  0
    5.7400    4.4180    0.3360 N   0  0  0  0  0  0  0  0  0  0  0  0
    4.3600    4.0590    0.6750 C   0  0  0  0  0  0  0  0  0  0  0  0
    4.4120    3.1260    1.2490 H   0  0  0  0  0  0  0  0  0  0  0  0
    3.9250    4.8230    1.3280 H   0  0  0  0  0  0  0  0  0  0  0  0
    3.4820    3.8630   -0.5640 C   0  0  0  0  0  0  0  0  0  0  0  0
    3.3780    4.8110   -1.1050 H   0  0  0  0  0  0  0  0  0  0  0  0
    2.4820    3.5410   -0.2610 H   0  0  0  0  0  0  0  0  0  0  0  0
    6.4790    5.1430    1.2690 C   0  0  0  0  0  0  0  0  0  0  0  0
    7.8120    5.6550    0.8800 C   0  0  0  0  0  0  0  0  0  0  0  0
    1.4570    3.4600   -3.0830 O   0  0  0  0  0  0  0  0  0  0  0  0
    3.7600    1.3570   -3.2310 O   0  0  0  0  0  0  0  0  0  0  0  0
    6.0930    5.3820    2.4110 O   0  0  0  0  0  0  0  0  0  0  0  0
   -1.2070    3.3350   -3.3050 F   0  0  0  0  0  0  0  0  0  0  0  0
    8.9240    5.2860    1.6440 C   0  0  0  0  0  0  0  0  0  0  0  0
    8.8100    4.6220    2.4970 H   0  0  0  0  0  0  0  0  0  0  0  0
   10.1850    5.7760    1.3050 C   0  0  0  0  0  0  0  0  0  0  0  0
   11.0550    5.4900    1.8900 H   0  0  0  0  0  0  0  0  0  0  0  0
   10.3290    6.6400    0.2170 C   0  0  0  0  0  0  0  0  0  0  0  0
   11.3130    7.0220   -0.0440 H   0  0  0  0  0  0  0  0  0  0  0  0
    9.2130    7.0250   -0.5290 C   0  0  0  0  0  0  0  0  0  0  0  0
    9.3290    7.7080   -1.3660 H   0  0  0  0  0  0  0  0  0  0  0  0
    7.9490    6.5400   -0.1940 C   0  0  0  0  0  0  0  0  0  0  0  0
    7.0810    6.8610   -0.7630 H   0  0  0  0  0  0  0  0  0  0  0  0
   -2.7580   -0.7870    0.2510 C   0  0  0  0  0  0  0  0  0  0  0  0
   -3.8380   -0.6840    1.0940 N   0  0  0  0  0  0  0  0  0  0  0  0
   -4.0060   -1.5410    1.6110 H   0  0  0  0  0  0  0  0  0  0  0  0
   -2.0460   -1.7900    0.2860 O   0  0  0  0  0  0  0  0  0  0  0  0
   -4.7250    0.4370    1.3990 C   0  0  0  0  0  0  0  0  0  0  0  0
   -4.7370    0.5210    2.4920 H   0  0  0  0  0  0  0  0  0  0  0  0
   -4.2950    1.3620    1.0120 H   0  0  0  0  0  0  0  0  0  0  0  0
   -6.1560    0.1870    0.8900 C   0  0  0  0  0  0  0  0  0  0  0  0
   -6.4920   -0.7570    1.3390 H   0  0  0  0  0  0  0  0  0  0  0  0
   -6.1550    0.0210   -0.1940 H   0  0  0  0  0  0  0  0  0  0  0  0
   -7.1060    1.2540    1.2570 N   0  0  0  0  0  0  0  0  0  0  0  0
   -8.4790    0.8170    0.9870 C   0  0  0  0  0  0  0  0  0  0  0  0
   -9.1970    1.5860    1.2960 H   0  0  0  0  0  0  0  0  0  0  0  0
   -8.7200   -0.0820    1.5650 H   0  0  0  0  0  0  0  0  0  0  0  0
   -8.6420    0.6000   -0.0750 H   0  0  0  0  0  0  0  0  0  0  0  0
   -6.8370    2.5010    0.5370 C   0  0  0  0  0  0  0  0  0  0  0  0
   -7.5730    3.2670    0.8060 H   0  0  0  0  0  0  0  0  0  0  0  0
   -6.8670    2.3650   -0.5500 H   0  0  0  0  0  0  0  0  0  0  0  0
   -5.8610    2.9150    0.8080 H   0  0  0  0  0  0  0  0  0  0  0  0
  1  2  1  0  0  0  0
  1  3  1  0  0  0  0
  1  8  2  0  0  0  0
  3  4  1  0  0  0  0
  3  5  2  0  0  0  0
  5  6  1  0  0  0  0
  5 46  1  0  0  0  0
  6  7  2  0  0  0  0
  6  9  1  0  0  0  0
  7  8  1  0  0  0  0
  7 13  1  0  0  0  0
  8 35  1  0  0  0  0
  9 10  1  0  0  0  0
  9 11  1  0  0  0  0
 11 12  1  0  0  0  0
 11 13  2  0  0  0  0
 13 14  1  0  0  0  0
 14 15  1  0  0  0  0
 14 32  2  0  0  0  0
 15 16  1  0  0  0  0
 15 33  2  0  0  0  0
 16 17  1  0  0  0  0
 16 27  1  0  0  0  0
 17 18  1  0  0  0  0
 17 19  1  0  0  0  0
 17 20  1  0  0  0  0
 20 21  1  0  0  0  0
 20 22  1  0  0  0  0
 20 23  1  0  0  0  0
 23 24  1  0  0  0  0
 23 30  1  0  0  0  0
 24 25  1  0  0  0  0
 24 26  1  0  0  0  0
 24 27  1  0  0  0  0
 27 28  1  0  0  0  0
 27 29  1  0  0  0  0
 30 31  1  0  0  0  0
 30 34  2  0  0  0  0
 31 36  1  0  0  0  0
 31 44  2  0  0  0  0
 36 37  1  0  0  0  0
 36 38  2  0  0  0  0
 38 39  1  0  0  0  0
 38 40  1  0  0  0  0
 40 41  1  0  0  0  0
 40 42  2  0  0  0  0
 42 43  1  0  0  0  0
 42 44  1  0  0  0  0
 44 45  1  0  0  0  0
 46 47  1  0  0  0  0
 46 49  2  0  0  0  0
 47 48  1  0  0  0  0
 47 50  1  0  0  0  0
 50 51  1  0  0  0  0
 50 52  1  0  0  0  0
 50 53  1  0  0  0  0
 53 54  1  0  0  0  0
 53 55  1  0  0  0  0
 53 56  1  0  0  0  0
 56 57  1  0  0  0  0
 56 61  1  0  0  0  0
 57 58  1  0  0  0  0
 57 59  1  0  0  0  0
 57 60  1  0  0  0  0
 61 62  1  0  0  0  0
 61 63  1  0  0  0  0
 61 64  1  0  0  0  0
M  END
>  <Activity>
6.5007

>  <AM1_dipole>
3.21683

>  <AM1_E>
-150208

>  <AM1_Eele>
-1.23967e+006

>  <AM1_HF>
-69.5488

>  <AM1_HOMO>
-9.03251

>  <AM1_IP>
9.03251

>  <AM1_LUMO>
-0.90324

>  <diameter>
20

>  <petitjean>
0.5

>  <petitjeanSC>
1

>  <radius>
10

>  <VDistEq>
4.02105

>  <VDistMa>
10.0204

>  <weinerPath>
4557

>  <weinerPol>
60

>  <BCUT_PEOE_0>
-2.71188

>  <BCUT_PEOE_1>
-0.55892

>  <BCUT_PEOE_2>
0.576019

>  <BCUT_PEOE_3>
2.65031

>  <BCUT_SLOGP_0>
-2.86001

>  <BCUT_SLOGP_1>
-0.478731

>  <BCUT_SLOGP_2>
0.663869

>  <BCUT_SLOGP_3>
2.50336

>  <BCUT_SMR_0>
-2.43203

>  <BCUT_SMR_1>
-0.388619

>  <BCUT_SMR_2>
0.709967

>  <BCUT_SMR_3>
2.92027

>  <GCUT_PEOE_0>
-0.860579

>  <GCUT_PEOE_1>
-0.40374

>  <GCUT_PEOE_2>
0.0698983

>  <GCUT_PEOE_3>
2.74705

>  <GCUT_SLOGP_0>
-1.16148

>  <GCUT_SLOGP_1>
-0.325188

>  <GCUT_SLOGP_2>
0.162756

>  <GCUT_SLOGP_3>
2.72286

>  <GCUT_SMR_0>
-0.515852

>  <GCUT_SMR_1>
-0.213711

>  <GCUT_SMR_2>
0.180777

>  <GCUT_SMR_3>
3.01716

>  <a_aro>
15

>  <a_count>
64

>  <a_IC>
107.573

>  <a_ICM>
1.68083

>  <a_nH>
28

>  <b_1rotN>
9

>  <b_1rotR>
0.230769

>  <b_ar>
16

>  <b_count>
67

>  <b_double>
4

>  <b_rotN>
10

>  <b_rotR>
0.25641

>  <b_single>
47

>  <b_triple>
0

>  <chi0v>
20.214

>  <chi0v_C>
15.8614

>  <chi1v>
11.6805

>  <chi1v_C>
6.61004

>  <chiral>
0

>  <chiral_u>
0

>  <nmol>
1

>  <reactive>
0

>  <rings>
4

>  <Weight>
493.539

>  <a_heavy>
36

>  <a_nB>
0

>  <a_nBr>
0

>  <a_nC>
26

>  <a_nCl>
0

>  <a_nF>
1

>  <a_nI>
0

>  <a_nN>
5

>  <a_nO>
4

>  <a_nP>
0

>  <a_nS>
0

>  <b_heavy>
39

>  <chi0>
25.8193

>  <chi0_C>
17.673

>  <chi1>
17.2738

>  <chi1_C>
8.70791

>  <FCharge>
0

>  <VAdjEq>
0.32818

>  <VAdjMa>
6.2854

>  <zagreb>
188

>  <balabanJ>
1.29944

>  <PEOE_PC+>
3.34715

>  <PEOE_PC->
-3.34715

>  <PEOE_RPC+>
0.0881648

>  <PEOE_RPC->
0.10734

>  <PEOE_VSA+0>
142.971

>  <PEOE_VSA+1>
79.3628

>  <PEOE_VSA+2>
9.02085

>  <PEOE_VSA+3>
17.238

>  <PEOE_VSA+4>
0

>  <PEOE_VSA+5>
47.3071

>  <PEOE_VSA+6>
0

>  <PEOE_VSA-0>
95.497

>  <PEOE_VSA-1>
36.7647

>  <PEOE_VSA-2>
0

>  <PEOE_VSA-3>
0

>  <PEOE_VSA-4>
11.9086

>  <PEOE_VSA-5>
54.2677

>  <PEOE_VSA-6>
0.273782

>  <PEOE_VSA_FHYD>
0.770007

>  <PEOE_VSA_FNEG>
0.401753

>  <PEOE_VSA_FPNEG>
0.134348

>  <PEOE_VSA_FPOL>
0.229993

>  <PEOE_VSA_FPOS>
0.598247

>  <PEOE_VSA_FPPOS>
0.095645

>  <PEOE_VSA_HYD>
380.854

>  <PEOE_VSA_NEG>
198.712

>  <PEOE_VSA_PNEG>
66.4501

>  <PEOE_VSA_POL>
113.757

>  <PEOE_VSA_POS>
295.9

>  <PEOE_VSA_PPOS>
47.3071

>  <PC+>
6.919

>  <PC->
-6.92

>  <Q_PC+>
6.919

>  <Q_PC->
-6.92

>  <Q_RPC+>
0.0948114

>  <Q_RPC->
0.117052

>  <Q_VSA_FHYD>
0.471652

>  <Q_VSA_FNEG>
0.359376

>  <Q_VSA_FPNEG>
0.143851

>  <Q_VSA_FPOL>
0.528348

>  <Q_VSA_FPOS>
0.640624

>  <Q_VSA_FPPOS>
0.384497

>  <Q_VSA_HYD>
233.284

>  <Q_VSA_NEG>
177.752

>  <Q_VSA_PNEG>
71.1505

>  <Q_VSA_POL>
261.327

>  <Q_VSA_POS>
316.86

>  <Q_VSA_PPOS>
190.176

>  <RPC+>
0.0948114

>  <RPC->
0.117052

>  <lip_acc>
9

>  <lip_don>
2

>  <lip_druglike>
1

>  <lip_violation>
0

>  <opr_brigid>
22

>  <opr_leadlike>
0

>  <opr_nring>
4

>  <opr_nrot>
9

>  <opr_violation>
2

>  <E>
119.048

>  <E_ang>
17.196

>  <E_ele>
30.9375

>  <E_nb>
89.437

>  <E_oop>
0.242356

>  <E_sol>
-29.8921

>  <E_stb>
1.066

>  <E_str>
7.60692

>  <E_strain>
0.00635085

>  <E_tor>
3.50021

>  <E_vdw>
58.4995

>  <E_rele>
0

>  <E_rnb>
-2.84217e-014

>  <E_rsol>
-2.84217e-014

>  <E_rvdw>
0

>  <Kier1>
28.9941

>  <Kier2>
13.3752

>  <Kier3>
6.9664

>  <KierA1>
20.6889

>  <KierA2>
9.44494

>  <KierA3>
4.88347

>  <KierFlex>
5.42792

>  <logS>
-4.36859

>  <MNDO_dipole>
3.07995

>  <MNDO_E>
-150415

>  <MNDO_Eele>
-1.22122e+006

>  <MNDO_HF>
-82.3408

>  <MNDO_HOMO>
-9.13033

>  <MNDO_IP>
9.13033

>  <MNDO_LUMO>
-0.98395

>  <apol>
73.6952

>  <bpol>
42.9048

>  <mr>
13.3856

>  <dipole>
0.438129

>  <dipoleX>
-0.361

>  <dipoleY>
-0.0490447

>  <dipoleZ>
0.243374

>  <pmi>
17123.4

>  <pmiX>
13317.9

>  <pmiY>
2580.6

>  <pmiZ>
1224.9

>  <rgyr>
5.89025

>  <a_acc>
5

>  <a_acid>
0

>  <a_base>
0

>  <a_don>
2

>  <a_hyd>
23

>  <vsa_acc>
54.2677

>  <vsa_acid>
0

>  <vsa_base>
0

>  <vsa_don>
11.3652

>  <vsa_hyd>
357.018

>  <vsa_other>
47.3071

>  <vsa_pol>
65.6328

>  <PM3_dipole>
2.86897

>  <PM3_E>
-136926

>  <PM3_Eele>
-1.21848e+006

>  <PM3_HF>
-116.73

>  <PM3_HOMO>
-9.05441

>  <PM3_IP>
9.05441

>  <PM3_LUMO>
-0.97865

>  <SlogP>
1.7657

>  <SlogP_VSA0>
18.0107

>  <SlogP_VSA1>
30.8369

>  <SlogP_VSA2>
49.7688

>  <SlogP_VSA3>
110.637

>  <SlogP_VSA4>
81.1434

>  <SlogP_VSA5>
65.7944

>  <SlogP_VSA6>
0

>  <SlogP_VSA7>
145.434

>  <SlogP_VSA8>
0

>  <SlogP_VSA9>
14.9601

>  <SMR>
13.24

>  <SMR_VSA0>
95.4489

>  <SMR_VSA1>
24.3331

>  <SMR_VSA2>
43.9173

>  <SMR_VSA3>
9.55672

>  <SMR_VSA4>
4.7171

>  <SMR_VSA5>
140.717

>  <SMR_VSA6>
132.101

>  <SMR_VSA7>
65.7944

>  <ASA>
795.833

>  <ASA+>
287.224

>  <ASA->
264.114

>  <ASA_H>
539.339

>  <ASA_P>
256.495

>  <CASA+>
1987.3

>  <CASA->
1827.67

>  <DASA>
23.1102

>  <DCASA>
159.635

>  <FASA+>
0.36091

>  <FASA->
0.331871

>  <FASA_H>
0.677703

>  <FASA_P>
0.322297

>  <FCASA+>
2.49714

>  <FCASA->
2.29655

>  <VSA>
507.829

>  <TPSA>
105.82

>  <density>
0.763639

>  <vdw_area>
494.611

>  <vdw_vol>
646.299

>  <vsurf_A>
2.86194

>  <vsurf_CP>
0.0647733

>  <vsurf_CW1>
2.62527

>  <vsurf_CW2>
2.084

>  <vsurf_CW3>
1.42267

>  <vsurf_CW4>
0.732573

>  <vsurf_CW5>
0.361694

>  <vsurf_CW6>
0.152529

>  <vsurf_CW7>
0.0339404

>  <vsurf_CW8>
0.00539791

>  <vsurf_D1>
1001.75

>  <vsurf_D2>
603.5

>  <vsurf_D3>
458.875

>  <vsurf_D4>
387.375

>  <vsurf_D5>
332.625

>  <vsurf_D6>
254

>  <vsurf_D7>
150

>  <vsurf_D8>
92.375

>  <vsurf_DD12>
0.5

>  <vsurf_DD13>
0.5

>  <vsurf_DD23>
0.707107

>  <vsurf_DW12>
0.5

>  <vsurf_DW13>
0.5

>  <vsurf_DW23>
0.707107

>  <vsurf_EDmin1>
-2.69572

>  <vsurf_EDmin2>
-2.69061

>  <vsurf_EDmin3>
-2.67595

>  <vsurf_EWmin1>
-6.95719

>  <vsurf_EWmin2>
-6.81393

>  <vsurf_EWmin3>
-6.49029

>  <vsurf_G>
1.43912

>  <vsurf_HB1>
437.25

>  <vsurf_HB2>
536.5

>  <vsurf_HB3>
453.25

>  <vsurf_HB4>
199.875

>  <vsurf_HB5>
80.875

>  <vsurf_HB6>
28.875

>  <vsurf_HB7>
7.25

>  <vsurf_HB8>
1.125

>  <vsurf_HL1>
0.195042

>  <vsurf_HL2>
0.0787351

>  <vsurf_ID1>
0.881428

>  <vsurf_ID2>
0.744381

>  <vsurf_ID3>
0.757006

>  <vsurf_ID4>
0.921653

>  <vsurf_ID5>
1.04679

>  <vsurf_ID6>
1.67392

>  <vsurf_ID7>
0.858852

>  <vsurf_ID8>
0.37407

>  <vsurf_IW1>
0.387388

>  <vsurf_IW2>
0.729168

>  <vsurf_IW3>
1.13451

>  <vsurf_IW4>
1.64727

>  <vsurf_IW5>
2.3212

>  <vsurf_IW6>
3.28967

>  <vsurf_IW7>
5.61546

>  <vsurf_IW8>
8.22184

>  <vsurf_R>
1.46373

>  <vsurf_S>
722.214

>  <vsurf_V>
1057.13

>  <vsurf_W1>
1746.25

>  <vsurf_W2>
1089.88

>  <vsurf_W3>
586.125

>  <vsurf_W4>
225

>  <vsurf_W5>
89.5

>  <vsurf_W6>
30.5

>  <vsurf_W7>
7.25

>  <vsurf_W8>
1.125

>  <vsurf_Wp1>
1309

>  <vsurf_Wp2>
553.375

>  <vsurf_Wp3>
132.875

>  <vsurf_Wp4>
25.125

>  <vsurf_Wp5>
8.625

>  <vsurf_Wp6>
1.625

>  <vsurf_Wp7>
0

>  <vsurf_Wp8>
0

>  <dens>
1.0674

>  <glob>
0.051534

>  <std_dim1>
6.16047

>  <std_dim2>
1.54324

>  <std_dim3>
1.39849

>  <vol>
462.375

>  <logP(o/w)>
1.408

$$$$
D11.cdx
  MOE2008           3D

 69 73  0  0  0  0  0  0  0  0999 V2000
   -1.6780   -1.5660   -2.3520 C   0  0  0  0  0  0  0  0  0  0  0  0
   -2.6080   -1.1310   -2.7080 H   0  0  0  0  0  0  0  0  0  0  0  0
   -1.6910   -2.7650   -1.6400 C   0  0  0  0  0  0  0  0  0  0  0  0
   -2.6460   -3.2570   -1.4910 H   0  0  0  0  0  0  0  0  0  0  0  0
   -0.5060   -3.3420   -1.1580 C   0  0  0  0  0  0  0  0  0  0  0  0
    0.6990   -2.6910   -1.5140 C   0  0  0  0  0  0  0  0  0  0  0  0
    0.7520   -1.4890   -2.2280 C   0  0  0  0  0  0  0  0  0  0  0  0
   -0.4730   -0.9200   -2.6340 C   0  0  0  0  0  0  0  0  0  0  0  0
    2.0020   -3.0730   -1.2790 N   0  0  0  0  0  0  0  0  0  0  0  0
    2.2560   -3.9320   -0.8020 H   0  0  0  0  0  0  0  0  0  0  0  0
    2.8720   -2.1470   -1.7850 C   0  0  0  0  0  0  0  0  0  0  0  0
    3.9400   -2.2960   -1.6790 H   0  0  0  0  0  0  0  0  0  0  0  0
    2.1400   -1.1330   -2.3760 C   0  0  0  0  0  0  0  0  0  0  0  0
    2.7090    0.0500   -3.0170 C   0  0  0  0  0  0  0  0  0  0  0  0
    4.2100    0.1530   -3.2400 C   0  0  0  0  0  0  0  0  0  0  0  0
    4.9590    0.7500   -2.2270 N   0  0  0  0  0  0  0  0  0  0  0  0
    6.4140    0.8230   -2.3630 C   0  0  0  0  0  0  0  0  0  0  0  0
    6.7710    0.0480   -3.0490 H   0  0  0  0  0  0  0  0  0  0  0  0
    6.6400    1.7950   -2.8190 H   0  0  0  0  0  0  0  0  0  0  0  0
    7.1220    0.6970   -1.0110 C   0  0  0  0  0  0  0  0  0  0  0  0
    8.2030    0.8080   -1.1430 H   0  0  0  0  0  0  0  0  0  0  0  0
    6.9280   -0.2970   -0.5900 H   0  0  0  0  0  0  0  0  0  0  0  0
    6.6390    1.6780   -0.0260 N   0  0  0  0  0  0  0  0  0  0  0  0
    5.3240    2.2740   -0.2790 C   0  0  0  0  0  0  0  0  0  0  0  0
    4.8730    2.6070    0.6620 H   0  0  0  0  0  0  0  0  0  0  0  0
    5.4990    3.1660   -0.8920 H   0  0  0  0  0  0  0  0  0  0  0  0
    4.3740    1.3180   -1.0060 C   0  0  0  0  0  0  0  0  0  0  0  0
    3.4400    1.8330   -1.2490 H   0  0  0  0  0  0  0  0  0  0  0  0
    4.1290    0.4710   -0.3530 H   0  0  0  0  0  0  0  0  0  0  0  0
    7.3510    2.0950    1.0970 C   0  0  0  0  0  0  0  0  0  0  0  0
    8.6360    1.4320    1.4140 C   0  0  0  0  0  0  0  0  0  0  0  0
    2.0340    1.0060   -3.3850 O   0  0  0  0  0  0  0  0  0  0  0  0
    4.6640   -0.3010   -4.2850 O   0  0  0  0  0  0  0  0  0  0  0  0
    6.9880    2.9980    1.8450 O   0  0  0  0  0  0  0  0  0  0  0  0
   -0.5250    0.2250   -3.3290 F   0  0  0  0  0  0  0  0  0  0  0  0
    8.6770    0.0710    1.7340 C   0  0  0  0  0  0  0  0  0  0  0  0
    7.7690   -0.5240    1.7480 H   0  0  0  0  0  0  0  0  0  0  0  0
    9.8990   -0.5220    2.0540 C   0  0  0  0  0  0  0  0  0  0  0  0
    9.9440   -1.5790    2.3020 H   0  0  0  0  0  0  0  0  0  0  0  0
   11.0660    0.2440    2.0670 C   0  0  0  0  0  0  0  0  0  0  0  0
   12.0160   -0.2200    2.3210 H   0  0  0  0  0  0  0  0  0  0  0  0
   11.0170    1.6080    1.7700 C   0  0  0  0  0  0  0  0  0  0  0  0
   11.9270    2.2020    1.7950 H   0  0  0  0  0  0  0  0  0  0  0  0
    9.7990    2.2070    1.4480 C   0  0  0  0  0  0  0  0  0  0  0  0
    9.7590    3.2710    1.2290 H   0  0  0  0  0  0  0  0  0  0  0  0
   -0.4930   -4.6320   -0.4140 C   0  0  0  0  0  0  0  0  0  0  0  0
   -1.4540   -4.9750    0.5070 N   0  0  0  0  0  0  0  0  0  0  0  0
   -1.3200   -5.9150    0.8650 H   0  0  0  0  0  0  0  0  0  0  0  0
    0.4620   -5.3850   -0.6090 O   0  0  0  0  0  0  0  0  0  0  0  0
   -2.5660   -4.2230    1.0870 C   0  0  0  0  0  0  0  0  0  0  0  0
   -2.4480   -4.3120    2.1730 H   0  0  0  0  0  0  0  0  0  0  0  0
   -2.4700   -3.1640    0.8420 H   0  0  0  0  0  0  0  0  0  0  0  0
   -3.9300   -4.8060    0.6740 C   0  0  0  0  0  0  0  0  0  0  0  0
   -3.9040   -5.8780    0.9120 H   0  0  0  0  0  0  0  0  0  0  0  0
   -4.0600   -4.7410   -0.4130 H   0  0  0  0  0  0  0  0  0  0  0  0
   -5.0700   -4.1950    1.3820 N   0  0  0  0  0  0  0  0  0  0  0  0
   -5.3140   -2.8000    0.9580 C   0  0  0  0  0  0  0  0  0  0  0  0
   -4.4550   -2.1680    1.2010 H   0  0  0  0  0  0  0  0  0  0  0  0
   -5.4700   -2.7610   -0.1280 H   0  0  0  0  0  0  0  0  0  0  0  0
   -6.5480   -2.2160    1.6630 C   0  0  0  0  0  0  0  0  0  0  0  0
   -6.7450   -1.2070    1.2880 H   0  0  0  0  0  0  0  0  0  0  0  0
   -6.3900   -2.1420    2.7460 H   0  0  0  0  0  0  0  0  0  0  0  0
   -7.7160   -3.0060    1.4090 O   0  0  0  0  0  0  0  0  0  0  0  0
   -7.5050   -4.3510    1.8550 C   0  0  0  0  0  0  0  0  0  0  0  0
   -7.3770   -4.3570    2.9440 H   0  0  0  0  0  0  0  0  0  0  0  0
   -8.4110   -4.9210    1.6250 H   0  0  0  0  0  0  0  0  0  0  0  0
   -6.3000   -4.9820    1.1470 C   0  0  0  0  0  0  0  0  0  0  0  0
   -6.5070   -5.0410    0.0700 H   0  0  0  0  0  0  0  0  0  0  0  0
   -6.1700   -6.0030    1.5240 H   0  0  0  0  0  0  0  0  0  0  0  0
  1  2  1  0  0  0  0
  1  3  1  0  0  0  0
  1  8  2  0  0  0  0
  3  4  1  0  0  0  0
  3  5  2  0  0  0  0
  5  6  1  0  0  0  0
  5 46  1  0  0  0  0
  6  7  2  0  0  0  0
  6  9  1  0  0  0  0
  7  8  1  0  0  0  0
  7 13  1  0  0  0  0
  8 35  1  0  0  0  0
  9 10  1  0  0  0  0
  9 11  1  0  0  0  0
 11 12  1  0  0  0  0
 11 13  2  0  0  0  0
 13 14  1  0  0  0  0
 14 15  1  0  0  0  0
 14 32  2  0  0  0  0
 15 16  1  0  0  0  0
 15 33  2  0  0  0  0
 16 17  1  0  0  0  0
 16 27  1  0  0  0  0
 17 18  1  0  0  0  0
 17 19  1  0  0  0  0
 17 20  1  0  0  0  0
 20 21  1  0  0  0  0
 20 22  1  0  0  0  0
 20 23  1  0  0  0  0
 23 24  1  0  0  0  0
 23 30  1  0  0  0  0
 24 25  1  0  0  0  0
 24 26  1  0  0  0  0
 24 27  1  0  0  0  0
 27 28  1  0  0  0  0
 27 29  1  0  0  0  0
 30 31  1  0  0  0  0
 30 34  2  0  0  0  0
 31 36  1  0  0  0  0
 31 44  2  0  0  0  0
 36 37  1  0  0  0  0
 36 38  2  0  0  0  0
 38 39  1  0  0  0  0
 38 40  1  0  0  0  0
 40 41  1  0  0  0  0
 40 42  2  0  0  0  0
 42 43  1  0  0  0  0
 42 44  1  0  0  0  0
 44 45  1  0  0  0  0
 46 47  1  0  0  0  0
 46 49  2  0  0  0  0
 47 48  1  0  0  0  0
 47 50  1  0  0  0  0
 50 51  1  0  0  0  0
 50 52  1  0  0  0  0
 50 53  1  0  0  0  0
 53 54  1  0  0  0  0
 53 55  1  0  0  0  0
 53 56  1  0  0  0  0
 56 57  1  0  0  0  0
 56 67  1  0  0  0  0
 57 58  1  0  0  0  0
 57 59  1  0  0  0  0
 57 60  1  0  0  0  0
 60 61  1  0  0  0  0
 60 62  1  0  0  0  0
 60 63  1  0  0  0  0
 63 64  1  0  0  0  0
 64 65  1  0  0  0  0
 64 66  1  0  0  0  0
 64 67  1  0  0  0  0
 67 68  1  0  0  0  0
 67 69  1  0  0  0  0
M  END
>  <Activity>
8.0996

>  <AM1_dipole>
4.968

>  <AM1_E>
-164143

>  <AM1_Eele>
-1.40466e+006

>  <AM1_HF>
-111.314

>  <AM1_HOMO>
-9.06805

>  <AM1_IP>
9.06805

>  <AM1_LUMO>
-0.95052

>  <diameter>
22

>  <petitjean>
0.5

>  <petitjeanSC>
1

>  <radius>
11

>  <VDistEq>
4.15103

>  <VDistMa>
10.2469

>  <weinerPath>
5822

>  <weinerPol>
65

>  <BCUT_PEOE_0>
-2.72478

>  <BCUT_PEOE_1>
-0.585142

>  <BCUT_PEOE_2>
0.589062

>  <BCUT_PEOE_3>
2.65034

>  <BCUT_SLOGP_0>
-2.86001

>  <BCUT_SLOGP_1>
-0.498422

>  <BCUT_SLOGP_2>
0.692618

>  <BCUT_SLOGP_3>
2.52123

>  <BCUT_SMR_0>
-2.45451

>  <BCUT_SMR_1>
-0.401148

>  <BCUT_SMR_2>
0.736052

>  <BCUT_SMR_3>
2.92029

>  <GCUT_PEOE_0>
-0.858509

>  <GCUT_PEOE_1>
-0.41681

>  <GCUT_PEOE_2>
0.0732983

>  <GCUT_PEOE_3>
2.78528

>  <GCUT_SLOGP_0>
-1.16151

>  <GCUT_SLOGP_1>
-0.31462

>  <GCUT_SLOGP_2>
0.16331

>  <GCUT_SLOGP_3>
2.75637

>  <GCUT_SMR_0>
-0.515345

>  <GCUT_SMR_1>
-0.214491

>  <GCUT_SMR_2>
0.184785

>  <GCUT_SMR_3>
3.05128

>  <a_aro>
15

>  <a_count>
69

>  <a_IC>
116.456

>  <a_ICM>
1.68777

>  <a_nH>
30

>  <b_1rotN>
9

>  <b_1rotR>
0.209302

>  <b_ar>
16

>  <b_count>
73

>  <b_double>
4

>  <b_rotN>
10

>  <b_rotR>
0.232558

>  <b_single>
53

>  <b_triple>
0

>  <chi0v>
21.4507

>  <chi0v_C>
16.6899

>  <chi1v>
12.9959

>  <chi1v_C>
7.61004

>  <chiral>
0

>  <chiral_u>
0

>  <nmol>
1

>  <reactive>
0

>  <rings>
5

>  <Weight>
535.576

>  <a_heavy>
39

>  <a_nB>
0

>  <a_nBr>
0

>  <a_nC>
28

>  <a_nCl>
0

>  <a_nF>
1

>  <a_nI>
0

>  <a_nN>
5

>  <a_nO>
5

>  <a_nP>
0

>  <a_nS>
0

>  <b_heavy>
43

>  <chi0>
27.3548

>  <chi0_C>
18.5014

>  <chi1>
18.9356

>  <chi1_C>
9.70791

>  <FCharge>
0

>  <VAdjEq>
0.313561

>  <VAdjMa>
6.42626

>  <zagreb>
206

>  <balabanJ>
1.10751

>  <PEOE_PC+>
3.68806

>  <PEOE_PC->
-3.68806

>  <PEOE_RPC+>
0.0800151

>  <PEOE_RPC->
0.102288

>  <PEOE_VSA+0>
160.825

>  <PEOE_VSA+1>
126.327

>  <PEOE_VSA+2>
9.02085

>  <PEOE_VSA+3>
17.238

>  <PEOE_VSA+4>
0

>  <PEOE_VSA+5>
47.3071

>  <PEOE_VSA+6>
0

>  <PEOE_VSA-0>
49.0196

>  <PEOE_VSA-1>
36.7647

>  <PEOE_VSA-2>
0

>  <PEOE_VSA-3>
0

>  <PEOE_VSA-4>
11.9086

>  <PEOE_VSA-5>
54.2677

>  <PEOE_VSA-6>
2.77754

>  <PEOE_VSA_FHYD>
0.77445

>  <PEOE_VSA_FNEG>
0.300197

>  <PEOE_VSA_FPNEG>
0.133773

>  <PEOE_VSA_FPOL>
0.22555

>  <PEOE_VSA_FPOS>
0.699803

>  <PEOE_VSA_FPPOS>
0.0917772

>  <PEOE_VSA_HYD>
399.195

>  <PEOE_VSA_NEG>
154.738

>  <PEOE_VSA_PNEG>
68.9539

>  <PEOE_VSA_POL>
116.261

>  <PEOE_VSA_POS>
360.718

>  <PEOE_VSA_PPOS>
47.3071

>  <PC+>
7.479

>  <PC->
-7.48

>  <Q_PC+>
7.479

>  <Q_PC->
-7.48

>  <Q_RPC+>
0.0877123

>  <Q_RPC->
0.108289

>  <Q_VSA_FHYD>
0.469129

>  <Q_VSA_FNEG>
0.349701

>  <Q_VSA_FPNEG>
0.142891

>  <Q_VSA_FPOL>
0.530871

>  <Q_VSA_FPOS>
0.650299

>  <Q_VSA_FPPOS>
0.38798

>  <Q_VSA_HYD>
241.815

>  <Q_VSA_NEG>
180.255

>  <Q_VSA_PNEG>
73.6542

>  <Q_VSA_POL>
273.641

>  <Q_VSA_POS>
335.201

>  <Q_VSA_PPOS>
199.986

>  <RPC+>
0.0877123

>  <RPC->
0.108289

>  <lip_acc>
10

>  <lip_don>
2

>  <lip_druglike>
1

>  <lip_violation>
1

>  <opr_brigid>
28

>  <opr_leadlike>
0

>  <opr_nring>
5

>  <opr_nrot>
11

>  <opr_violation>
4

>  <E>
138.574

>  <E_ang>
18.8343

>  <E_ele>
48.0073

>  <E_nb>
111.027

>  <E_oop>
0.251485

>  <E_sol>
-26.2082

>  <E_stb>
1.40573

>  <E_str>
8.7603

>  <E_strain>
0.00646168

>  <E_tor>
-1.70437

>  <E_vdw>
63.0198

>  <E_rele>
0

>  <E_rnb>
8.52651e-014

>  <E_rsol>
8.52651e-014

>  <E_rvdw>
0

>  <Kier1>
30.4575

>  <Kier2>
14.4506

>  <Kier3>
7.32421

>  <KierA1>
22.3466

>  <KierA2>
10.5099

>  <KierA3>
5.2935

>  <KierFlex>
6.02206

>  <logS>
-4.66007

>  <MNDO_dipole>
0

>  <apol>
79.3508

>  <bpol>
47.0072

>  <mr>
14.3252

>  <dipole>
1.44258

>  <dipoleX>
0.190792

>  <dipoleY>
-1.15382

>  <dipoleZ>
0.844588

>  <pmi>
20285.7

>  <pmiX>
15085.3

>  <pmiY>
3251.49

>  <pmiZ>
1948.94

>  <rgyr>
6.15438

>  <a_acc>
6

>  <a_acid>
0

>  <a_base>
0

>  <a_don>
2

>  <a_hyd>
25

>  <vsa_acc>
56.7714

>  <vsa_acid>
0

>  <vsa_base>
0

>  <vsa_don>
11.3652

>  <vsa_hyd>
373.935

>  <vsa_other>
47.3071

>  <vsa_pol>
68.1366

>  <PM3_dipole>
5.52235

>  <PM3_E>
-149870

>  <PM3_Eele>
-1.38068e+006

>  <PM3_HF>
-150.608

>  <PM3_HOMO>
-9.11848

>  <PM3_IP>
9.11848

>  <PM3_LUMO>
-1.04977

>  <SlogP>
1.5363

>  <SlogP_VSA0>
18.0107

>  <SlogP_VSA1>
30.8369

>  <SlogP_VSA2>
60.7687

>  <SlogP_VSA3>
189.369

>  <SlogP_VSA4>
81.1434

>  <SlogP_VSA5>
0

>  <SlogP_VSA6>
0

>  <SlogP_VSA7>
145.434

>  <SlogP_VSA8>
0

>  <SlogP_VSA9>
14.9601

>  <SMR>
14.1105

>  <SMR_VSA0>
106.449

>  <SMR_VSA1>
24.3331

>  <SMR_VSA2>
43.9173

>  <SMR_VSA3>
9.55672

>  <SMR_VSA4>
4.7171

>  <SMR_VSA5>
140.717

>  <SMR_VSA6>
210.833

>  <SMR_VSA7>
0

>  <ASA>
836.192

>  <ASA+>
281.93

>  <ASA->
274.06

>  <ASA_H>
570.426

>  <ASA_P>
265.766

>  <CASA+>
2108.55

>  <CASA->
2049.97

>  <DASA>
7.87002

>  <DCASA>
58.5858

>  <FASA+>
0.337159

>  <FASA->
0.327748

>  <FASA_H>
0.682171

>  <FASA_P>
0.317829

>  <FCASA+>
2.52162

>  <FCASA->
2.45155

>  <VSA>
538.741

>  <TPSA>
115.05

>  <density>
0.77404

>  <vdw_area>
515.456

>  <vdw_vol>
691.923

>  <vsurf_A>
2.22403

>  <vsurf_CP>
0.0593122

>  <vsurf_CW1>
2.64505

>  <vsurf_CW2>
2.22615

>  <vsurf_CW3>
1.56816

>  <vsurf_CW4>
0.790991

>  <vsurf_CW5>
0.378019

>  <vsurf_CW6>
0.147128

>  <vsurf_CW7>
0.0343946

>  <vsurf_CW8>
0.00664306

>  <vsurf_D1>
1021.13

>  <vsurf_D2>
620

>  <vsurf_D3>
463.375

>  <vsurf_D4>
381.875

>  <vsurf_D5>
315.5

>  <vsurf_D6>
246.625

>  <vsurf_D7>
148.25

>  <vsurf_D8>
89.875

>  <vsurf_DD12>
3.90512

>  <vsurf_DD13>
0.5

>  <vsurf_DD23>
4.1833

>  <vsurf_DW12>
1.22474

>  <vsurf_DW13>
0.5

>  <vsurf_DW23>
0.866025

>  <vsurf_EDmin1>
-2.79115

>  <vsurf_EDmin2>
-2.71553

>  <vsurf_EDmin3>
-2.70696

>  <vsurf_EWmin1>
-6.8224

>  <vsurf_EWmin2>
-6.48546

>  <vsurf_EWmin3>
-6.46914

>  <vsurf_G>
1.46197

>  <vsurf_HB1>
529.75

>  <vsurf_HB2>
653.25

>  <vsurf_HB3>
528.5

>  <vsurf_HB4>
226

>  <vsurf_HB5>
89.25

>  <vsurf_HB6>
30.5

>  <vsurf_HB7>
7.875

>  <vsurf_HB8>
1.5

>  <vsurf_HL1>
0.210952

>  <vsurf_HL2>
0.0841244

>  <vsurf_ID1>
1.31673

>  <vsurf_ID2>
1.18941

>  <vsurf_ID3>
1.25702

>  <vsurf_ID4>
1.53569

>  <vsurf_ID5>
1.88362

>  <vsurf_ID6>
2.3348

>  <vsurf_ID7>
1.50266

>  <vsurf_ID8>
1.05048

>  <vsurf_IW1>
0.366403

>  <vsurf_IW2>
0.828812

>  <vsurf_IW3>
1.07536

>  <vsurf_IW4>
1.234

>  <vsurf_IW5>
1.4084

>  <vsurf_IW6>
2.21274

>  <vsurf_IW7>
4.81304

>  <vsurf_IW8>
6.98642

>  <vsurf_R>
1.4692

>  <vsurf_S>
762.829

>  <vsurf_V>
1120.75

>  <vsurf_W1>
1898.88

>  <vsurf_W2>
1233.63

>  <vsurf_W3>
667.25

>  <vsurf_W4>
250.875

>  <vsurf_W5>
97.75

>  <vsurf_W6>
32.125

>  <vsurf_W7>
7.875

>  <vsurf_W8>
1.5

>  <vsurf_Wp1>
1369.13

>  <vsurf_Wp2>
580.375

>  <vsurf_Wp3>
138.75

>  <vsurf_Wp4>
24.875

>  <vsurf_Wp5>
8.5

>  <vsurf_Wp6>
1.625

>  <vsurf_Wp7>
0

>  <vsurf_Wp8>
0

>  <dens>
1.08115

>  <glob>
0.0591952

>  <std_dim1>
6.15811

>  <std_dim2>
1.88688

>  <std_dim3>
1.49827

>  <vol>
495.375

>  <logP(o/w)>
0.974

$$$$
D11.cdx
  MOE2008           3D

 59 63  0  0  0  0  0  0  0  0999 V2000
   -2.2070   -4.5370   -0.4130 C   0  0  0  0  0  0  0  0  0  0  0  0
   -3.0400   -3.8530   -0.5540 H   0  0  0  0  0  0  0  0  0  0  0  0
   -2.2840   -5.8440   -0.8860 C   0  0  0  0  0  0  0  0  0  0  0  0
   -3.1830   -6.1590   -1.4110 H   0  0  0  0  0  0  0  0  0  0  0  0
   -1.2240   -6.7460   -0.6930 C   0  0  0  0  0  0  0  0  0  0  0  0
   -0.0620   -6.2500   -0.0700 C   0  0  0  0  0  0  0  0  0  0  0  0
    0.0500   -4.9430    0.4160 C   0  0  0  0  0  0  0  0  0  0  0  0
   -1.0580   -4.0860    0.2410 C   0  0  0  0  0  0  0  0  0  0  0  0
    1.1360   -6.8800    0.1770 N   0  0  0  0  0  0  0  0  0  0  0  0
    1.3420   -7.8320   -0.1060 H   0  0  0  0  0  0  0  0  0  0  0  0
    1.9840   -6.0400    0.8420 C   0  0  0  0  0  0  0  0  0  0  0  0
    2.9670   -6.3860    1.1330 H   0  0  0  0  0  0  0  0  0  0  0  0
    1.3560   -4.8170    1.0050 C   0  0  0  0  0  0  0  0  0  0  0  0
    1.9540   -3.6520    1.6500 C   0  0  0  0  0  0  0  0  0  0  0  0
    3.3510   -3.7460    2.2420 C   0  0  0  0  0  0  0  0  0  0  0  0
    4.4100   -3.3350    1.4330 N   0  0  0  0  0  0  0  0  0  0  0  0
    5.7800   -3.4550    1.9340 C   0  0  0  0  0  0  0  0  0  0  0  0
    6.0270   -2.4980    2.4080 H   0  0  0  0  0  0  0  0  0  0  0  0
    5.8340   -4.2300    2.7060 H   0  0  0  0  0  0  0  0  0  0  0  0
    6.7750   -3.7600    0.8100 C   0  0  0  0  0  0  0  0  0  0  0  0
    6.5450   -4.7390    0.3740 H   0  0  0  0  0  0  0  0  0  0  0  0
    7.7930   -3.7960    1.2120 H   0  0  0  0  0  0  0  0  0  0  0  0
    6.7080   -2.7800   -0.2840 N   0  0  0  0  0  0  0  0  0  0  0  0
    5.4680   -2.0070   -0.4020 C   0  0  0  0  0  0  0  0  0  0  0  0
    5.6050   -1.1050    0.2080 H   0  0  0  0  0  0  0  0  0  0  0  0
    5.3230   -1.6820   -1.4380 H   0  0  0  0  0  0  0  0  0  0  0  0
    4.2390   -2.7830    0.0820 C   0  0  0  0  0  0  0  0  0  0  0  0
    4.0510   -3.6360   -0.5810 H   0  0  0  0  0  0  0  0  0  0  0  0
    3.3570   -2.1380    0.0530 H   0  0  0  0  0  0  0  0  0  0  0  0
    7.7380   -2.5210   -1.1870 C   0  0  0  0  0  0  0  0  0  0  0  0
    8.9440   -3.3790   -1.1550 C   0  0  0  0  0  0  0  0  0  0  0  0
    1.3950   -2.5640    1.7450 O   0  0  0  0  0  0  0  0  0  0  0  0
    3.4550   -4.1930    3.3790 O   0  0  0  0  0  0  0  0  0  0  0  0
    7.7180   -1.6120   -2.0120 O   0  0  0  0  0  0  0  0  0  0  0  0
   -1.0460   -2.8180    0.6750 F   0  0  0  0  0  0  0  0  0  0  0  0
    8.8530   -4.7470   -1.4330 C   0  0  0  0  0  0  0  0  0  0  0  0
    7.8950   -5.2030   -1.6700 H   0  0  0  0  0  0  0  0  0  0  0  0
   10.0080   -5.5280   -1.4210 C   0  0  0  0  0  0  0  0  0  0  0  0
    9.9490   -6.5930   -1.6340 H   0  0  0  0  0  0  0  0  0  0  0  0
   11.2460   -4.9420   -1.1480 C   0  0  0  0  0  0  0  0  0  0  0  0
   12.1450   -5.5530   -1.1440 H   0  0  0  0  0  0  0  0  0  0  0  0
   11.3350   -3.5720   -0.8950 C   0  0  0  0  0  0  0  0  0  0  0  0
   12.3030   -3.1190   -0.6960 H   0  0  0  0  0  0  0  0  0  0  0  0
   10.1850   -2.7840   -0.9040 C   0  0  0  0  0  0  0  0  0  0  0  0
   10.2560   -1.7150   -0.7190 H   0  0  0  0  0  0  0  0  0  0  0  0
   -1.3020   -8.1320   -1.2150 C   0  0  0  0  0  0  0  0  0  0  0  0
   -2.4470   -8.8900   -1.1000 N   0  0  0  0  0  0  0  0  0  0  0  0
   -2.4870   -9.6360   -1.7880 H   0  0  0  0  0  0  0  0  0  0  0  0
   -0.3140   -8.5670   -1.8050 O   0  0  0  0  0  0  0  0  0  0  0  0
   -3.5190   -8.8180   -0.1890 C   0  0  0  0  0  0  0  0  0  0  0  0
   -3.4550   -8.1550    1.0340 C   0  0  0  0  0  0  0  0  0  0  0  0
   -2.5620   -7.6550    1.3870 H   0  0  0  0  0  0  0  0  0  0  0  0
   -4.5700   -8.1800    1.8580 C   0  0  0  0  0  0  0  0  0  0  0  0
   -4.5630   -7.6780    2.8210 H   0  0  0  0  0  0  0  0  0  0  0  0
   -5.7160   -8.8210    1.5550 N   0  0  0  0  0  0  0  0  0  0  0  0
   -5.7430   -9.4820    0.3790 C   0  0  0  0  0  0  0  0  0  0  0  0
   -6.6730  -10.0000    0.1630 H   0  0  0  0  0  0  0  0  0  0  0  0
   -4.6810   -9.5190   -0.5100 C   0  0  0  0  0  0  0  0  0  0  0  0
   -4.7790  -10.0720   -1.4380 H   0  0  0  0  0  0  0  0  0  0  0  0
  1  2  1  0  0  0  0
  1  3  1  0  0  0  0
  1  8  2  0  0  0  0
  3  4  1  0  0  0  0
  3  5  2  0  0  0  0
  5  6  1  0  0  0  0
  5 46  1  0  0  0  0
  6  7  2  0  0  0  0
  6  9  1  0  0  0  0
  7  8  1  0  0  0  0
  7 13  1  0  0  0  0
  8 35  1  0  0  0  0
  9 10  1  0  0  0  0
  9 11  1  0  0  0  0
 11 12  1  0  0  0  0
 11 13  2  0  0  0  0
 13 14  1  0  0  0  0
 14 15  1  0  0  0  0
 14 32  2  0  0  0  0
 15 16  1  0  0  0  0
 15 33  2  0  0  0  0
 16 17  1  0  0  0  0
 16 27  1  0  0  0  0
 17 18  1  0  0  0  0
 17 19  1  0  0  0  0
 17 20  1  0  0  0  0
 20 21  1  0  0  0  0
 20 22  1  0  0  0  0
 20 23  1  0  0  0  0
 23 24  1  0  0  0  0
 23 30  1  0  0  0  0
 24 25  1  0  0  0  0
 24 26  1  0  0  0  0
 24 27  1  0  0  0  0
 27 28  1  0  0  0  0
 27 29  1  0  0  0  0
 30 31  1  0  0  0  0
 30 34  2  0  0  0  0
 31 36  1  0  0  0  0
 31 44  2  0  0  0  0
 36 37  1  0  0  0  0
 36 38  2  0  0  0  0
 38 39  1  0  0  0  0
 38 40  1  0  0  0  0
 40 41  1  0  0  0  0
 40 42  2  0  0  0  0
 42 43  1  0  0  0  0
 42 44  1  0  0  0  0
 44 45  1  0  0  0  0
 46 47  1  0  0  0  0
 46 49  2  0  0  0  0
 47 48  1  0  0  0  0
 47 50  1  0  0  0  0
 50 51  1  0  0  0  0
 50 58  2  0  0  0  0
 51 52  1  0  0  0  0
 51 53  2  0  0  0  0
 53 54  1  0  0  0  0
 53 55  1  0  0  0  0
 55 56  2  0  0  0  0
 56 57  1  0  0  0  0
 56 58  1  0  0  0  0
 58 59  1  0  0  0  0
M  END
>  <Activity>
8.4723

>  <AM1_dipole>
5.05187

>  <AM1_E>
-151237

>  <AM1_Eele>
-1.24016e+006

>  <AM1_HF>
9.89391

>  <AM1_HOMO>
-9.17712

>  <AM1_IP>
9.17712

>  <AM1_LUMO>
-1.1121

>  <diameter>
20

>  <petitjean>
0.5

>  <petitjeanSC>
1

>  <radius>
10

>  <VDistEq>
4.0224

>  <VDistMa>
10.1016

>  <weinerPath>
4838

>  <weinerPol>
63

>  <BCUT_PEOE_0>
-2.71188

>  <BCUT_PEOE_1>
-0.633619

>  <BCUT_PEOE_2>
0.685779

>  <BCUT_PEOE_3>
2.65031

>  <BCUT_SLOGP_0>
-2.86001

>  <BCUT_SLOGP_1>
-0.53808

>  <BCUT_SLOGP_2>
0.789762

>  <BCUT_SLOGP_3>
2.50337

>  <BCUT_SMR_0>
-2.43203

>  <BCUT_SMR_1>
-0.478322

>  <BCUT_SMR_2>
0.851684

>  <BCUT_SMR_3>
2.92027

>  <GCUT_PEOE_0>
-0.857947

>  <GCUT_PEOE_1>
-0.43053

>  <GCUT_PEOE_2>
0.0922558

>  <GCUT_PEOE_3>
2.72451

>  <GCUT_SLOGP_0>
-0.993311

>  <GCUT_SLOGP_1>
-0.332313

>  <GCUT_SLOGP_2>
0.170651

>  <GCUT_SLOGP_3>
2.71814

>  <GCUT_SMR_0>
-0.508916

>  <GCUT_SMR_1>
-0.216057

>  <GCUT_SMR_2>
0.21484

>  <GCUT_SMR_3>
3.00095

>  <a_aro>
21

>  <a_count>
59

>  <a_IC>
100.977

>  <a_ICM>
1.71147

>  <a_nH>
22

>  <b_1rotN>
7

>  <b_1rotR>
0.170732

>  <b_ar>
22

>  <b_count>
63

>  <b_double>
4

>  <b_rotN>
8

>  <b_rotR>
0.195122

>  <b_single>
37

>  <b_triple>
0

>  <chi0v>
19.6092

>  <chi0v_C>
15.2566

>  <chi1v>
11.6267

>  <chi1v_C>
7.35406

>  <chiral>
0

>  <chiral_u>
0

>  <nmol>
1

>  <reactive>
0

>  <rings>
5

>  <Weight>
499.502

>  <a_heavy>
37

>  <a_nB>
0

>  <a_nBr>
0

>  <a_nC>
27

>  <a_nCl>
0

>  <a_nF>
1

>  <a_nI>
0

>  <a_nN>
5

>  <a_nO>
4

>  <a_nP>
0

>  <a_nS>
0

>  <b_heavy>
41

>  <chi0>
25.9406

>  <chi0_C>
17.6646

>  <chi1>
17.9356

>  <chi1_C>
10.0244

>  <FCharge>
0

>  <VAdjEq>
0.327039

>  <VAdjMa>
6.35755

>  <zagreb>
198

>  <balabanJ>
1.14681

>  <PEOE_PC+>
3.28883

>  <PEOE_PC->
-3.28883

>  <PEOE_RPC+>
0.0897281

>  <PEOE_RPC->
0.109243

>  <PEOE_VSA+0>
114.124

>  <PEOE_VSA+1>
96.4243

>  <PEOE_VSA+2>
9.02085

>  <PEOE_VSA+3>
17.238

>  <PEOE_VSA+4>
0

>  <PEOE_VSA+5>
47.3071

>  <PEOE_VSA+6>
0

>  <PEOE_VSA-0>
73.5294

>  <PEOE_VSA-1>
36.7647

>  <PEOE_VSA-2>
0

>  <PEOE_VSA-3>
0

>  <PEOE_VSA-4>
11.9086

>  <PEOE_VSA-5>
59.9503

>  <PEOE_VSA-6>
0.273782

>  <PEOE_VSA_FHYD>
0.743989

>  <PEOE_VSA_FNEG>
0.39102

>  <PEOE_VSA_FPNEG>
0.154612

>  <PEOE_VSA_FPOL>
0.256011

>  <PEOE_VSA_FPOS>
0.60898

>  <PEOE_VSA_FPPOS>
0.1014

>  <PEOE_VSA_HYD>
347.101

>  <PEOE_VSA_NEG>
182.427

>  <PEOE_VSA_PNEG>
72.1327

>  <PEOE_VSA_POL>
119.44

>  <PEOE_VSA_POS>
284.114

>  <PEOE_VSA_PPOS>
47.3071

>  <PC+>
6.846

>  <PC->
-6.847

>  <Q_PC+>
6.846

>  <Q_PC->
-6.847

>  <Q_RPC+>
0.0958224

>  <Q_RPC->
0.0963926

>  <Q_VSA_FHYD>
0.583857

>  <Q_VSA_FNEG>
0.445714

>  <Q_VSA_FPNEG>
0.164687

>  <Q_VSA_FPOL>
0.416143

>  <Q_VSA_FPOS>
0.554286

>  <Q_VSA_FPPOS>
0.251456

>  <Q_VSA_HYD>
272.393

>  <Q_VSA_NEG>
207.944

>  <Q_VSA_PNEG>
76.8331

>  <Q_VSA_POL>
194.148

>  <Q_VSA_POS>
258.597

>  <Q_VSA_PPOS>
117.314

>  <RPC+>
0.0958224

>  <RPC->
0.0963926

>  <lip_acc>
9

>  <lip_don>
2

>  <lip_druglike>
1

>  <lip_violation>
0

>  <opr_brigid>
28

>  <opr_leadlike>
0

>  <opr_nring>
5

>  <opr_nrot>
7

>  <opr_violation>
3

>  <E>
125.295

>  <E_ang>
15.8816

>  <E_ele>
20.6493

>  <E_nb>
85.7262

>  <E_oop>
0.177619

>  <E_sol>
-30.9787

>  <E_stb>
1.20565

>  <E_str>
7.2619

>  <E_strain>
0.00611142

>  <E_tor>
15.0416

>  <E_vdw>
65.0769

>  <E_rele>
0

>  <E_rnb>
-2.84217e-014

>  <E_rsol>
-2.84217e-014

>  <E_rvdw>
0

>  <Kier1>
28.5259

>  <Kier2>
13.1094

>  <Kier3>
6.5025

>  <KierA1>
19.0417

>  <KierA2>
8.64407

>  <KierA3>
4.24974

>  <KierFlex>
4.44859

>  <logS>
-5.03642

>  <MNDO_dipole>
6.08239

>  <MNDO_E>
-151376

>  <MNDO_Eele>
-1.23322e+006

>  <MNDO_HF>
-54.8383

>  <MNDO_HOMO>
-9.25295

>  <MNDO_IP>
9.25295

>  <MNDO_LUMO>
-1.1071

>  <apol>
71.4544

>  <bpol>
35.6856

>  <mr>
13.5448

>  <dipole>
1.56702

>  <dipoleX>
0.265152

>  <dipoleY>
-1.47798

>  <dipoleZ>
-0.448137

>  <pmi>
16035.4

>  <pmiX>
12314

>  <pmiY>
2862.83

>  <pmiZ>
858.577

>  <rgyr>
5.66593

>  <a_acc>
5

>  <a_acid>
0

>  <a_base>
0

>  <a_don>
2

>  <a_hyd>
24

>  <vsa_acc>
59.9503

>  <vsa_acid>
0

>  <vsa_base>
0

>  <vsa_don>
11.3652

>  <vsa_hyd>
327.536

>  <vsa_other>
47.3071

>  <vsa_pol>
71.3154

>  <PM3_dipole>
5.2305

>  <PM3_E>
-137496

>  <PM3_Eele>
-1.21308e+006

>  <PM3_HF>
-57.4495

>  <PM3_HOMO>
-9.18849

>  <PM3_IP>
9.18849

>  <PM3_LUMO>
-1.12144

>  <SlogP>
3.1216

>  <SlogP_VSA0>
0

>  <SlogP_VSA1>
62.5089

>  <SlogP_VSA2>
49.7688

>  <SlogP_VSA3>
73.7583

>  <SlogP_VSA4>
81.1434

>  <SlogP_VSA5>
0

>  <SlogP_VSA6>
0

>  <SlogP_VSA7>
215.149

>  <SlogP_VSA8>
0

>  <SlogP_VSA9>
17.7169

>  <SMR>
13.3703

>  <SMR_VSA0>
95.4489

>  <SMR_VSA1>
37.9943

>  <SMR_VSA2>
25.9065

>  <SMR_VSA3>
9.55672

>  <SMR_VSA4>
25.4846

>  <SMR_VSA5>
210.432

>  <SMR_VSA6>
95.2223

>  <SMR_VSA7>
0

>  <ASA>
769.137

>  <ASA+>
364.825

>  <ASA->
298.821

>  <ASA_H>
548.627

>  <ASA_P>
220.51

>  <CASA+>
2497.59

>  <CASA->
2046.03

>  <DASA>
66.0042

>  <DCASA>
451.566

>  <FASA+>
0.474331

>  <FASA->
0.388515

>  <FASA_H>
0.713302

>  <FASA_P>
0.286698

>  <FCASA+>
3.24727

>  <FCASA->
2.66016

>  <VSA>
486.236

>  <TPSA>
115.47

>  <density>
0.784668

>  <vdw_area>
466.541

>  <vdw_vol>
636.578

>  <vsurf_A>
2.04788

>  <vsurf_CP>
0.0648163

>  <vsurf_CW1>
2.66837

>  <vsurf_CW2>
2.27618

>  <vsurf_CW3>
1.53405

>  <vsurf_CW4>
0.789176

>  <vsurf_CW5>
0.381407

>  <vsurf_CW6>
0.137023

>  <vsurf_CW7>
0.0210999

>  <vsurf_CW8>
0.00419635

>  <vsurf_D1>
1011.13

>  <vsurf_D2>
607.75

>  <vsurf_D3>
453.125

>  <vsurf_D4>
375.5

>  <vsurf_D5>
321.25

>  <vsurf_D6>
264.875

>  <vsurf_D7>
171.5

>  <vsurf_D8>
104.125

>  <vsurf_DD12>
7.38241

>  <vsurf_DD13>
6.72681

>  <vsurf_DD23>
3.04138

>  <vsurf_DW12>
0.5

>  <vsurf_DW13>
0.5

>  <vsurf_DW23>
1

>  <vsurf_EDmin1>
-2.77655

>  <vsurf_EDmin2>
-2.77061

>  <vsurf_EDmin3>
-2.70785

>  <vsurf_EWmin1>
-6.71962

>  <vsurf_EWmin2>
-6.47017

>  <vsurf_EWmin3>
-6.40597

>  <vsurf_G>
1.4222

>  <vsurf_HB1>
459.625

>  <vsurf_HB2>
545.375

>  <vsurf_HB3>
464.125

>  <vsurf_HB4>
208.375

>  <vsurf_HB5>
78.125

>  <vsurf_HB6>
24.5

>  <vsurf_HB7>
4.125

>  <vsurf_HB8>
0.75

>  <vsurf_HL1>
0.195862

>  <vsurf_HL2>
0.072237

>  <vsurf_ID1>
0.940679

>  <vsurf_ID2>
0.881878

>  <vsurf_ID3>
0.967815

>  <vsurf_ID4>
1.20741

>  <vsurf_ID5>
1.42476

>  <vsurf_ID6>
1.39654

>  <vsurf_ID7>
0.89286

>  <vsurf_ID8>
1.02574

>  <vsurf_IW1>
0.459941

>  <vsurf_IW2>
0.934364

>  <vsurf_IW3>
1.11378

>  <vsurf_IW4>
1.28037

>  <vsurf_IW5>
1.60786

>  <vsurf_IW6>
2.27287

>  <vsurf_IW7>
4.5575

>  <vsurf_IW8>
7.59265

>  <vsurf_R>
1.47068

>  <vsurf_S>
703.671

>  <vsurf_V>
1034.88

>  <vsurf_W1>
1798

>  <vsurf_W2>
1149.25

>  <vsurf_W3>
609.625

>  <vsurf_W4>
236.375

>  <vsurf_W5>
88.75

>  <vsurf_W6>
27.125

>  <vsurf_W7>
4.25

>  <vsurf_W8>
0.75

>  <vsurf_Wp1>
1338.38

>  <vsurf_Wp2>
603.875

>  <vsurf_Wp3>
145.5

>  <vsurf_Wp4>
28

>  <vsurf_Wp5>
10.625

>  <vsurf_Wp6>
2.625

>  <vsurf_Wp7>
0.125

>  <vsurf_Wp8>
0

>  <dens>
1.10662

>  <glob>
0.0433915

>  <std_dim1>
5.58736

>  <std_dim2>
1.82229

>  <std_dim3>
1.16388

>  <vol>
451.375

>  <logP(o/w)>
1.953

$$$$
D11.cdx
  MOE2008           3D

 59 63  0  0  0  0  0  0  0  0999 V2000
   -3.4110  -10.0350    2.6010 C   0  0  0  0  0  0  0  0  0  0  0  0
   -4.3010   -9.5400    2.9830 H   0  0  0  0  0  0  0  0  0  0  0  0
   -3.5280  -11.1330    1.7530 C   0  0  0  0  0  0  0  0  0  0  0  0
   -4.5220  -11.4900    1.4940 H   0  0  0  0  0  0  0  0  0  0  0  0
   -2.3880  -11.7710    1.2370 C   0  0  0  0  0  0  0  0  0  0  0  0
   -1.1340  -11.3060    1.6780 C   0  0  0  0  0  0  0  0  0  0  0  0
   -0.9800  -10.1980    2.5170 C   0  0  0  0  0  0  0  0  0  0  0  0
   -2.1520   -9.5570    2.9730 C   0  0  0  0  0  0  0  0  0  0  0  0
    0.1260  -11.7930    1.4110 N   0  0  0  0  0  0  0  0  0  0  0  0
    0.3070  -12.6170    0.8500 H   0  0  0  0  0  0  0  0  0  0  0  0
    1.0710  -11.0110    2.0140 C   0  0  0  0  0  0  0  0  0  0  0  0
    2.1210  -11.2490    1.8960 H   0  0  0  0  0  0  0  0  0  0  0  0
    0.4310   -9.9950    2.7020 C   0  0  0  0  0  0  0  0  0  0  0  0
    1.1050   -8.9390    3.4500 C   0  0  0  0  0  0  0  0  0  0  0  0
    2.6130   -8.9740    3.6270 C   0  0  0  0  0  0  0  0  0  0  0  0
    3.3800   -8.3390    2.6520 N   0  0  0  0  0  0  0  0  0  0  0  0
    4.8400   -8.3650    2.7540 C   0  0  0  0  0  0  0  0  0  0  0  0
    5.1370   -7.4400    3.2630 H   0  0  0  0  0  0  0  0  0  0  0  0
    5.1620   -9.2040    3.3790 H   0  0  0  0  0  0  0  0  0  0  0  0
    5.5050   -8.4470    1.3760 C   0  0  0  0  0  0  0  0  0  0  0  0
    5.2420   -9.3990    0.9010 H   0  0  0  0  0  0  0  0  0  0  0  0
    6.5930   -8.4080    1.4840 H   0  0  0  0  0  0  0  0  0  0  0  0
    5.0590   -7.3800    0.4660 N   0  0  0  0  0  0  0  0  0  0  0  0
    3.8010   -6.7080    0.8010 C   0  0  0  0  0  0  0  0  0  0  0  0
    4.0620   -5.8730    1.4630 H   0  0  0  0  0  0  0  0  0  0  0  0
    3.3470   -6.2790   -0.0990 H   0  0  0  0  0  0  0  0  0  0  0  0
    2.8030   -7.6340    1.4990 C   0  0  0  0  0  0  0  0  0  0  0  0
    2.4650   -8.4070    0.7980 H   0  0  0  0  0  0  0  0  0  0  0  0
    1.9240   -7.0660    1.8180 H   0  0  0  0  0  0  0  0  0  0  0  0
    5.7610   -6.9500   -0.6600 C   0  0  0  0  0  0  0  0  0  0  0  0
    6.9960   -7.6670   -1.0470 C   0  0  0  0  0  0  0  0  0  0  0  0
    0.5210   -7.9810    3.9470 O   0  0  0  0  0  0  0  0  0  0  0  0
    3.0560   -9.5650    4.6060 O   0  0  0  0  0  0  0  0  0  0  0  0
    5.4290   -5.9920   -1.3510 O   0  0  0  0  0  0  0  0  0  0  0  0
   -2.1050   -8.4930    3.7860 F   0  0  0  0  0  0  0  0  0  0  0  0
    8.2030   -6.9610   -1.0640 C   0  0  0  0  0  0  0  0  0  0  0  0
    8.2310   -5.9120   -0.7810 H   0  0  0  0  0  0  0  0  0  0  0  0
    9.3750   -7.6100   -1.4500 C   0  0  0  0  0  0  0  0  0  0  0  0
   10.3180   -7.0700   -1.4620 H   0  0  0  0  0  0  0  0  0  0  0  0
    9.3370   -8.9540   -1.8280 C   0  0  0  0  0  0  0  0  0  0  0  0
   10.2520   -9.4570   -2.1320 H   0  0  0  0  0  0  0  0  0  0  0  0
    8.1260   -9.6500   -1.8310 C   0  0  0  0  0  0  0  0  0  0  0  0
    8.1020  -10.6910   -2.1420 H   0  0  0  0  0  0  0  0  0  0  0  0
    6.9490   -9.0060   -1.4470 C   0  0  0  0  0  0  0  0  0  0  0  0
    6.0070   -9.5460   -1.4740 H   0  0  0  0  0  0  0  0  0  0  0  0
   -2.5170  -12.9360    0.3290 C   0  0  0  0  0  0  0  0  0  0  0  0
   -3.4370  -12.9540   -0.6980 N   0  0  0  0  0  0  0  0  0  0  0  0
   -3.6710  -13.8940   -0.9990 H   0  0  0  0  0  0  0  0  0  0  0  0
   -1.7930  -13.9060    0.5470 O   0  0  0  0  0  0  0  0  0  0  0  0
   -4.0590  -11.8980   -1.3960 C   0  0  0  0  0  0  0  0  0  0  0  0
   -5.1670  -12.2010   -2.1890 C   0  0  0  0  0  0  0  0  0  0  0  0
   -5.5590  -13.2130   -2.2400 H   0  0  0  0  0  0  0  0  0  0  0  0
   -5.8010  -11.1940   -2.9140 C   0  0  0  0  0  0  0  0  0  0  0  0
   -6.6720  -11.4090   -3.5240 H   0  0  0  0  0  0  0  0  0  0  0  0
   -5.2900   -9.9090   -2.8370 C   0  0  0  0  0  0  0  0  0  0  0  0
   -5.7500   -9.0890   -3.3810 H   0  0  0  0  0  0  0  0  0  0  0  0
   -4.2040   -9.5780   -2.1080 N   0  0  0  0  0  0  0  0  0  0  0  0
   -3.6090  -10.5810   -1.4160 C   0  0  0  0  0  0  0  0  0  0  0  0
   -2.7110  -10.2630   -0.9000 H   0  0  0  0  0  0  0  0  0  0  0  0
  1  2  1  0  0  0  0
  1  3  1  0  0  0  0
  1  8  2  0  0  0  0
  3  4  1  0  0  0  0
  3  5  2  0  0  0  0
  5  6  1  0  0  0  0
  5 46  1  0  0  0  0
  6  7  2  0  0  0  0
  6  9  1  0  0  0  0
  7  8  1  0  0  0  0
  7 13  1  0  0  0  0
  8 35  1  0  0  0  0
  9 10  1  0  0  0  0
  9 11  1  0  0  0  0
 11 12  1  0  0  0  0
 11 13  2  0  0  0  0
 13 14  1  0  0  0  0
 14 15  1  0  0  0  0
 14 32  2  0  0  0  0
 15 16  1  0  0  0  0
 15 33  2  0  0  0  0
 16 17  1  0  0  0  0
 16 27  1  0  0  0  0
 17 18  1  0  0  0  0
 17 19  1  0  0  0  0
 17 20  1  0  0  0  0
 20 21  1  0  0  0  0
 20 22  1  0  0  0  0
 20 23  1  0  0  0  0
 23 24  1  0  0  0  0
 23 30  1  0  0  0  0
 24 25  1  0  0  0  0
 24 26  1  0  0  0  0
 24 27  1  0  0  0  0
 27 28  1  0  0  0  0
 27 29  1  0  0  0  0
 30 31  1  0  0  0  0
 30 34  2  0  0  0  0
 31 36  1  0  0  0  0
 31 44  2  0  0  0  0
 36 37  1  0  0  0  0
 36 38  2  0  0  0  0
 38 39  1  0  0  0  0
 38 40  1  0  0  0  0
 40 41  1  0  0  0  0
 40 42  2  0  0  0  0
 42 43  1  0  0  0  0
 42 44  1  0  0  0  0
 44 45  1  0  0  0  0
 46 47  1  0  0  0  0
 46 49  2  0  0  0  0
 47 48  1  0  0  0  0
 47 50  1  0  0  0  0
 50 51  1  0  0  0  0
 50 58  2  0  0  0  0
 51 52  1  0  0  0  0
 51 53  2  0  0  0  0
 53 54  1  0  0  0  0
 53 55  1  0  0  0  0
 55 56  1  0  0  0  0
 55 57  2  0  0  0  0
 57 58  1  0  0  0  0
 58 59  1  0  0  0  0
M  END
>  <Activity>
8.0414

>  <AM1_dipole>
5.58234

>  <AM1_E>
-151236

>  <AM1_Eele>
-1.2514e+006

>  <AM1_HF>
-29.3353

>  <AM1_HOMO>
-9.09086

>  <AM1_IP>
9.09086

>  <AM1_LUMO>
-1.02743

>  <diameter>
20

>  <petitjean>
0.5

>  <petitjeanSC>
1

>  <radius>
10

>  <VDistEq>
4.0224

>  <VDistMa>
10.1016

>  <weinerPath>
4838

>  <weinerPol>
63

>  <BCUT_PEOE_0>
-2.71188

>  <BCUT_PEOE_1>
-0.62983

>  <BCUT_PEOE_2>
0.671909

>  <BCUT_PEOE_3>
2.65031

>  <BCUT_SLOGP_0>
-2.86001

>  <BCUT_SLOGP_1>
-0.526414

>  <BCUT_SLOGP_2>
0.761269

>  <BCUT_SLOGP_3>
2.50337

>  <BCUT_SMR_0>
-2.43203

>  <BCUT_SMR_1>
-0.446927

>  <BCUT_SMR_2>
0.83155

>  <BCUT_SMR_3>
2.92027

>  <GCUT_PEOE_0>
-0.857916

>  <GCUT_PEOE_1>
-0.430527

>  <GCUT_PEOE_2>
0.0800866

>  <GCUT_PEOE_3>
2.72347

>  <GCUT_SLOGP_0>
-0.993261

>  <GCUT_SLOGP_1>
-0.332317

>  <GCUT_SLOGP_2>
0.172411

>  <GCUT_SLOGP_3>
2.7162

>  <GCUT_SMR_0>
-0.508916

>  <GCUT_SMR_1>
-0.215367

>  <GCUT_SMR_2>
0.215814

>  <GCUT_SMR_3>
2.99976

>  <a_aro>
21

>  <a_count>
59

>  <a_IC>
100.977

>  <a_ICM>
1.71147

>  <a_nH>
22

>  <b_1rotN>
7

>  <b_1rotR>
0.170732

>  <b_ar>
22

>  <b_count>
63

>  <b_double>
4

>  <b_rotN>
8

>  <b_rotR>
0.195122

>  <b_single>
37

>  <b_triple>
0

>  <chi0v>
19.6092

>  <chi0v_C>
15.2566

>  <chi1v>
11.6267

>  <chi1v_C>
7.35406

>  <chiral>
0

>  <chiral_u>
0

>  <nmol>
1

>  <reactive>
0

>  <rings>
5

>  <Weight>
499.502

>  <a_heavy>
37

>  <a_nB>
0

>  <a_nBr>
0

>  <a_nC>
27

>  <a_nCl>
0

>  <a_nF>
1

>  <a_nI>
0

>  <a_nN>
5

>  <a_nO>
4

>  <a_nP>
0

>  <a_nS>
0

>  <b_heavy>
41

>  <chi0>
25.9406

>  <chi0_C>
17.6646

>  <chi1>
17.9356

>  <chi1_C>
10.0244

>  <FCharge>
0

>  <VAdjEq>
0.327039

>  <VAdjMa>
6.35755

>  <zagreb>
198

>  <balabanJ>
1.14681

>  <PEOE_PC+>
3.32245

>  <PEOE_PC->
-3.32245

>  <PEOE_RPC+>
0.0888202

>  <PEOE_RPC->
0.108138

>  <PEOE_VSA+0>
90.6782

>  <PEOE_VSA+1>
119.87

>  <PEOE_VSA+2>
9.02085

>  <PEOE_VSA+3>
17.238

>  <PEOE_VSA+4>
0

>  <PEOE_VSA+5>
47.3071

>  <PEOE_VSA+6>
0

>  <PEOE_VSA-0>
73.5294

>  <PEOE_VSA-1>
36.7647

>  <PEOE_VSA-2>
0

>  <PEOE_VSA-3>
0

>  <PEOE_VSA-4>
11.9086

>  <PEOE_VSA-5>
59.9503

>  <PEOE_VSA-6>
0.273782

>  <PEOE_VSA_FHYD>
0.743989

>  <PEOE_VSA_FNEG>
0.39102

>  <PEOE_VSA_FPNEG>
0.154612

>  <PEOE_VSA_FPOL>
0.256011

>  <PEOE_VSA_FPOS>
0.60898

>  <PEOE_VSA_FPPOS>
0.1014

>  <PEOE_VSA_HYD>
347.101

>  <PEOE_VSA_NEG>
182.427

>  <PEOE_VSA_PNEG>
72.1327

>  <PEOE_VSA_POL>
119.44

>  <PEOE_VSA_POS>
284.114

>  <PEOE_VSA_PPOS>
47.3071

>  <PC+>
6.846

>  <PC->
-6.847

>  <Q_PC+>
6.846

>  <Q_PC->
-6.847

>  <Q_RPC+>
0.0958224

>  <Q_RPC->
0.0963926

>  <Q_VSA_FHYD>
0.583857

>  <Q_VSA_FNEG>
0.445714

>  <Q_VSA_FPNEG>
0.164687

>  <Q_VSA_FPOL>
0.416143

>  <Q_VSA_FPOS>
0.554286

>  <Q_VSA_FPPOS>
0.251456

>  <Q_VSA_HYD>
272.393

>  <Q_VSA_NEG>
207.944

>  <Q_VSA_PNEG>
76.8331

>  <Q_VSA_POL>
194.148

>  <Q_VSA_POS>
258.597

>  <Q_VSA_PPOS>
117.314

>  <RPC+>
0.0958224

>  <RPC->
0.0963926

>  <lip_acc>
9

>  <lip_don>
2

>  <lip_druglike>
1

>  <lip_violation>
0

>  <opr_brigid>
28

>  <opr_leadlike>
0

>  <opr_nring>
5

>  <opr_nrot>
7

>  <opr_violation>
3

>  <E>
134.319

>  <E_ang>
15.9087

>  <E_ele>
29.7174

>  <E_nb>
94.3144

>  <E_oop>
0.164665

>  <E_sol>
-23.351

>  <E_stb>
1.22769

>  <E_str>
7.40199

>  <E_strain>
0.00634779

>  <E_tor>
15.3015

>  <E_vdw>
64.597

>  <E_rele>
0

>  <E_rnb>
1.35003e-013

>  <E_rsol>
1.35003e-013

>  <E_rvdw>
0

>  <Kier1>
28.5259

>  <Kier2>
13.1094

>  <Kier3>
6.5025

>  <KierA1>
19.0417

>  <KierA2>
8.64407

>  <KierA3>
4.24974

>  <KierFlex>
4.44859

>  <logS>
-5.03642

>  <MNDO_dipole>
6.2963

>  <MNDO_E>
-151376

>  <MNDO_Eele>
-1.24492e+006

>  <MNDO_HF>
-54.9384

>  <MNDO_HOMO>
-9.19798

>  <MNDO_IP>
9.19798

>  <MNDO_LUMO>
-1.04161

>  <apol>
71.4544

>  <bpol>
35.6856

>  <mr>
13.5448

>  <dipole>
1.7939

>  <dipoleX>
-0.228765

>  <dipoleY>
-1.35474

>  <dipoleZ>
-1.15345

>  <pmi>
14244.6

>  <pmiX>
9973.71

>  <pmiY>
1932.91

>  <pmiZ>
2337.96

>  <rgyr>
5.34018

>  <a_acc>
5

>  <a_acid>
0

>  <a_base>
0

>  <a_don>
2

>  <a_hyd>
24

>  <vsa_acc>
59.9503

>  <vsa_acid>
0

>  <vsa_base>
0

>  <vsa_don>
11.3652

>  <vsa_hyd>
327.536

>  <vsa_other>
47.3071

>  <vsa_pol>
71.3154

>  <PM3_dipole>
6.30707

>  <PM3_E>
-137496

>  <PM3_Eele>
-1.22837e+006

>  <PM3_HF>
-72.4594

>  <PM3_HOMO>
-9.13083

>  <PM3_IP>
9.13083

>  <PM3_LUMO>
-1.06604

>  <SlogP>
3.1216

>  <SlogP_VSA0>
0

>  <SlogP_VSA1>
62.5089

>  <SlogP_VSA2>
49.7688

>  <SlogP_VSA3>
73.7583

>  <SlogP_VSA4>
81.1434

>  <SlogP_VSA5>
0

>  <SlogP_VSA6>
0

>  <SlogP_VSA7>
215.149

>  <SlogP_VSA8>
0

>  <SlogP_VSA9>
17.7169

>  <SMR>
13.3703

>  <SMR_VSA0>
95.4489

>  <SMR_VSA1>
37.9943

>  <SMR_VSA2>
25.9065

>  <SMR_VSA3>
9.55672

>  <SMR_VSA4>
25.4846

>  <SMR_VSA5>
210.432

>  <SMR_VSA6>
95.2223

>  <SMR_VSA7>
0

>  <ASA>
768.147

>  <ASA+>
354.143

>  <ASA->
308.856

>  <ASA_H>
549.566

>  <ASA_P>
218.581

>  <CASA+>
2424.46

>  <CASA->
2114.74

>  <DASA>
45.2865

>  <DCASA>
309.722

>  <FASA+>
0.461035

>  <FASA->
0.402079

>  <FASA_H>
0.715443

>  <FASA_P>
0.284557

>  <FCASA+>
3.15625

>  <FCASA->
2.75304

>  <VSA>
489.18

>  <TPSA>
115.47

>  <density>
0.784668

>  <vdw_area>
466.541

>  <vdw_vol>
636.578

>  <vsurf_A>
2.27965

>  <vsurf_CP>
0.0670348

>  <vsurf_CW1>
2.63557

>  <vsurf_CW2>
2.205

>  <vsurf_CW3>
1.4951

>  <vsurf_CW4>
0.791815

>  <vsurf_CW5>
0.397287

>  <vsurf_CW6>
0.15493

>  <vsurf_CW7>
0.0202901

>  <vsurf_CW8>
0.00388769

>  <vsurf_D1>
993.25

>  <vsurf_D2>
589.75

>  <vsurf_D3>
442.875

>  <vsurf_D4>
377

>  <vsurf_D5>
318.875

>  <vsurf_D6>
262

>  <vsurf_D7>
158.5

>  <vsurf_D8>
93

>  <vsurf_DD12>
0.866025

>  <vsurf_DD13>
3.64005

>  <vsurf_DD23>
3.80789

>  <vsurf_DW12>
0.707107

>  <vsurf_DW13>
0.707107

>  <vsurf_DW23>
0.707107

>  <vsurf_EDmin1>
-2.97741

>  <vsurf_EDmin2>
-2.87869

>  <vsurf_EDmin3>
-2.85223

>  <vsurf_EWmin1>
-6.45295

>  <vsurf_EWmin2>
-6.39196

>  <vsurf_EWmin3>
-6.36979

>  <vsurf_G>
1.42366

>  <vsurf_HB1>
435.125

>  <vsurf_HB2>
525.75

>  <vsurf_HB3>
468.75

>  <vsurf_HB4>
214.75

>  <vsurf_HB5>
82

>  <vsurf_HB6>
26.625

>  <vsurf_HB7>
4.625

>  <vsurf_HB8>
0.875

>  <vsurf_HL1>
0.210274

>  <vsurf_HL2>
0.0779178

>  <vsurf_ID1>
1.28524

>  <vsurf_ID2>
1.26421

>  <vsurf_ID3>
1.39743

>  <vsurf_ID4>
1.61774

>  <vsurf_ID5>
1.8259

>  <vsurf_ID6>
1.83394

>  <vsurf_ID7>
1.02205

>  <vsurf_ID8>
0.689119

>  <vsurf_IW1>
0.308115

>  <vsurf_IW2>
0.430125

>  <vsurf_IW3>
0.78411

>  <vsurf_IW4>
1.16694

>  <vsurf_IW5>
1.2257

>  <vsurf_IW6>
1.89327

>  <vsurf_IW7>
5.47938

>  <vsurf_IW8>
7.76323

>  <vsurf_R>
1.46775

>  <vsurf_S>
703.034

>  <vsurf_V>
1031.88

>  <vsurf_W1>
1768.88

>  <vsurf_W2>
1126.25

>  <vsurf_W3>
616.875

>  <vsurf_W4>
243.75

>  <vsurf_W5>
93.125

>  <vsurf_W6>
29.375

>  <vsurf_W7>
4.625

>  <vsurf_W8>
0.875

>  <vsurf_Wp1>
1333.75

>  <vsurf_Wp2>
600.5

>  <vsurf_Wp3>
148.125

>  <vsurf_Wp4>
29

>  <vsurf_Wp5>
11.125

>  <vsurf_Wp6>
2.75

>  <vsurf_Wp7>
0

>  <vsurf_Wp8>
0

>  <dens>
1.10816

>  <glob>
0.08652

>  <std_dim1>
5.02743

>  <std_dim2>
2.14154

>  <std_dim3>
1.47878

>  <vol>
450.75

>  <logP(o/w)>
1.952

$$$$
D11.cdx
  MOE2008           3D

 59 63  0  0  0  0  0  0  0  0999 V2000
   -2.7120  -13.5190   -1.7130 C   0  0  0  0  0  0  0  0  0  0  0  0
   -3.5710  -12.8860   -1.9170 H   0  0  0  0  0  0  0  0  0  0  0  0
   -2.8850  -14.7710   -1.1290 C   0  0  0  0  0  0  0  0  0  0  0  0
   -3.8940  -15.1070   -0.8990 H   0  0  0  0  0  0  0  0  0  0  0  0
   -1.7810  -15.5930   -0.8450 C   0  0  0  0  0  0  0  0  0  0  0  0
   -0.5120  -15.1290   -1.2410 C   0  0  0  0  0  0  0  0  0  0  0  0
   -0.3010  -13.8760   -1.8240 C   0  0  0  0  0  0  0  0  0  0  0  0
   -1.4340  -13.0630   -2.0490 C   0  0  0  0  0  0  0  0  0  0  0  0
    0.7140  -15.7510   -1.1600 N   0  0  0  0  0  0  0  0  0  0  0  0
    0.8480  -16.6930   -0.8100 H   0  0  0  0  0  0  0  0  0  0  0  0
    1.6960  -14.9210   -1.6230 C   0  0  0  0  0  0  0  0  0  0  0  0
    2.7270  -15.2510   -1.6180 H   0  0  0  0  0  0  0  0  0  0  0  0
    1.1120  -13.7420   -2.0540 C   0  0  0  0  0  0  0  0  0  0  0  0
    1.8370  -12.6090   -2.6220 C   0  0  0  0  0  0  0  0  0  0  0  0
    3.3430  -12.6840   -2.8070 C   0  0  0  0  0  0  0  0  0  0  0  0
    4.1330  -12.1260   -1.8050 N   0  0  0  0  0  0  0  0  0  0  0  0
    5.5940  -12.1550   -1.9290 C   0  0  0  0  0  0  0  0  0  0  0  0
    5.9020  -12.7340   -2.8050 H   0  0  0  0  0  0  0  0  0  0  0  0
    5.9190  -11.1190   -2.0820 H   0  0  0  0  0  0  0  0  0  0  0  0
    6.2470  -12.7290   -0.6650 C   0  0  0  0  0  0  0  0  0  0  0  0
    7.3340  -12.6770   -0.7420 H   0  0  0  0  0  0  0  0  0  0  0  0
    5.9830  -13.7890   -0.5630 H   0  0  0  0  0  0  0  0  0  0  0  0
    5.7400  -12.0580    0.5440 N   0  0  0  0  0  0  0  0  0  0  0  0
    4.2790  -12.0490    0.6680 C   0  0  0  0  0  0  0  0  0  0  0  0
    3.9650  -13.0890    0.8110 H   0  0  0  0  0  0  0  0  0  0  0  0
    3.9590  -11.4800    1.5460 H   0  0  0  0  0  0  0  0  0  0  0  0
    3.6220  -11.4690   -0.5920 C   0  0  0  0  0  0  0  0  0  0  0  0
    3.8660  -10.4040   -0.6870 H   0  0  0  0  0  0  0  0  0  0  0  0
    2.5360  -11.5540   -0.5120 H   0  0  0  0  0  0  0  0  0  0  0  0
    6.5090  -11.4840    1.5520 C   0  0  0  0  0  0  0  0  0  0  0  0
    7.9690  -11.3750    1.3590 C   0  0  0  0  0  0  0  0  0  0  0  0
    1.3030  -11.5570   -2.9570 O   0  0  0  0  0  0  0  0  0  0  0  0
    3.7630  -13.2350   -3.8190 O   0  0  0  0  0  0  0  0  0  0  0  0
    6.0530  -11.0550    2.6070 O   0  0  0  0  0  0  0  0  0  0  0  0
   -1.3330  -11.8470   -2.6010 F   0  0  0  0  0  0  0  0  0  0  0  0
    8.8190  -12.1020    2.1970 C   0  0  0  0  0  0  0  0  0  0  0  0
    8.4120  -12.7540    2.9650 H   0  0  0  0  0  0  0  0  0  0  0  0
   10.2000  -11.9800    2.0440 C   0  0  0  0  0  0  0  0  0  0  0  0
   10.8710  -12.5430    2.6890 H   0  0  0  0  0  0  0  0  0  0  0  0
   10.7230  -11.1260    1.0700 C   0  0  0  0  0  0  0  0  0  0  0  0
   11.8000  -11.0300    0.9560 H   0  0  0  0  0  0  0  0  0  0  0  0
    9.8680  -10.3860    0.2490 C   0  0  0  0  0  0  0  0  0  0  0  0
   10.2830   -9.7120   -0.4960 H   0  0  0  0  0  0  0  0  0  0  0  0
    8.4860  -10.5020    0.3960 C   0  0  0  0  0  0  0  0  0  0  0  0
    7.8230   -9.9110   -0.2300 H   0  0  0  0  0  0  0  0  0  0  0  0
   -1.9740  -16.9290   -0.2330 C   0  0  0  0  0  0  0  0  0  0  0  0
   -2.8370  -17.1180    0.8180 N   0  0  0  0  0  0  0  0  0  0  0  0
   -3.1780  -18.0660    0.9290 H   0  0  0  0  0  0  0  0  0  0  0  0
   -1.3680  -17.8730   -0.7370 O   0  0  0  0  0  0  0  0  0  0  0  0
   -3.3300  -16.2530    1.8000 C   0  0  0  0  0  0  0  0  0  0  0  0
   -2.7620  -15.0200    2.0990 C   0  0  0  0  0  0  0  0  0  0  0  0
   -1.8810  -14.6460    1.5940 H   0  0  0  0  0  0  0  0  0  0  0  0
   -3.3110  -14.2540    3.1260 C   0  0  0  0  0  0  0  0  0  0  0  0
   -2.8780  -13.2890    3.3770 H   0  0  0  0  0  0  0  0  0  0  0  0
   -4.3990  -14.7430    3.8330 C   0  0  0  0  0  0  0  0  0  0  0  0
   -4.8470  -14.1710    4.6380 H   0  0  0  0  0  0  0  0  0  0  0  0
   -4.8840  -15.9920    3.4890 C   0  0  0  0  0  0  0  0  0  0  0  0
   -5.7260  -16.4280    4.0170 H   0  0  0  0  0  0  0  0  0  0  0  0
   -4.3670  -16.7570    2.5020 N   0  0  0  0  0  0  0  0  0  0  0  0
  1  2  1  0  0  0  0
  1  3  1  0  0  0  0
  1  8  2  0  0  0  0
  3  4  1  0  0  0  0
  3  5  2  0  0  0  0
  5  6  1  0  0  0  0
  5 46  1  0  0  0  0
  6  7  2  0  0  0  0
  6  9  1  0  0  0  0
  7  8  1  0  0  0  0
  7 13  1  0  0  0  0
  8 35  1  0  0  0  0
  9 10  1  0  0  0  0
  9 11  1  0  0  0  0
 11 12  1  0  0  0  0
 11 13  2  0  0  0  0
 13 14  1  0  0  0  0
 14 15  1  0  0  0  0
 14 32  2  0  0  0  0
 15 16  1  0  0  0  0
 15 33  2  0  0  0  0
 16 17  1  0  0  0  0
 16 27  1  0  0  0  0
 17 18  1  0  0  0  0
 17 19  1  0  0  0  0
 17 20  1  0  0  0  0
 20 21  1  0  0  0  0
 20 22  1  0  0  0  0
 20 23  1  0  0  0  0
 23 24  1  0  0  0  0
 23 30  1  0  0  0  0
 24 25  1  0  0  0  0
 24 26  1  0  0  0  0
 24 27  1  0  0  0  0
 27 28  1  0  0  0  0
 27 29  1  0  0  0  0
 30 31  1  0  0  0  0
 30 34  2  0  0  0  0
 31 36  1  0  0  0  0
 31 44  2  0  0  0  0
 36 37  1  0  0  0  0
 36 38  2  0  0  0  0
 38 39  1  0  0  0  0
 38 40  1  0  0  0  0
 40 41  1  0  0  0  0
 40 42  2  0  0  0  0
 42 43  1  0  0  0  0
 42 44  1  0  0  0  0
 44 45  1  0  0  0  0
 46 47  1  0  0  0  0
 46 49  2  0  0  0  0
 47 48  1  0  0  0  0
 47 50  1  0  0  0  0
 50 51  1  0  0  0  0
 50 59  2  0  0  0  0
 51 52  1  0  0  0  0
 51 53  2  0  0  0  0
 53 54  1  0  0  0  0
 53 55  1  0  0  0  0
 55 56  1  0  0  0  0
 55 57  2  0  0  0  0
 57 58  1  0  0  0  0
 57 59  1  0  0  0  0
M  END
>  <Activity>
9.187

>  <AM1_dipole>
4.17394

>  <AM1_E>
-151234

>  <AM1_Eele>
-1.24823e+006

>  <AM1_HF>
-1.76581

>  <AM1_HOMO>
-9.10204

>  <AM1_IP>
9.10204

>  <AM1_LUMO>
-1.03069

>  <diameter>
20

>  <petitjean>
0.5

>  <petitjeanSC>
1

>  <radius>
10

>  <VDistEq>
4.0224

>  <VDistMa>
10.1016

>  <weinerPath>
4838

>  <weinerPol>
63

>  <BCUT_PEOE_0>
-2.71188

>  <BCUT_PEOE_1>
-0.62966

>  <BCUT_PEOE_2>
0.655549

>  <BCUT_PEOE_3>
2.65031

>  <BCUT_SLOGP_0>
-2.86001

>  <BCUT_SLOGP_1>
-0.525671

>  <BCUT_SLOGP_2>
0.749784

>  <BCUT_SLOGP_3>
2.50336

>  <BCUT_SMR_0>
-2.43203

>  <BCUT_SMR_1>
-0.43054

>  <BCUT_SMR_2>
0.824445

>  <BCUT_SMR_3>
2.92027

>  <GCUT_PEOE_0>
-0.857829

>  <GCUT_PEOE_1>
-0.430514

>  <GCUT_PEOE_2>
0.0769367

>  <GCUT_PEOE_3>
2.72157

>  <GCUT_SLOGP_0>
-0.993382

>  <GCUT_SLOGP_1>
-0.332328

>  <GCUT_SLOGP_2>
0.172171

>  <GCUT_SLOGP_3>
2.71213

>  <GCUT_SMR_0>
-0.508916

>  <GCUT_SMR_1>
-0.215365

>  <GCUT_SMR_2>
0.215376

>  <GCUT_SMR_3>
2.99731

>  <a_aro>
21

>  <a_count>
59

>  <a_IC>
100.977

>  <a_ICM>
1.71147

>  <a_nH>
22

>  <b_1rotN>
7

>  <b_1rotR>
0.170732

>  <b_ar>
22

>  <b_count>
63

>  <b_double>
4

>  <b_rotN>
8

>  <b_rotR>
0.195122

>  <b_single>
37

>  <b_triple>
0

>  <chi0v>
19.6092

>  <chi0v_C>
15.2566

>  <chi1v>
11.6368

>  <chi1v_C>
7.39872

>  <chiral>
0

>  <chiral_u>
0

>  <nmol>
1

>  <reactive>
0

>  <rings>
5

>  <Weight>
499.502

>  <a_heavy>
37

>  <a_nB>
0

>  <a_nBr>
0

>  <a_nC>
27

>  <a_nCl>
0

>  <a_nF>
1

>  <a_nI>
0

>  <a_nN>
5

>  <a_nO>
4

>  <a_nP>
0

>  <a_nS>
0

>  <b_heavy>
41

>  <chi0>
25.9406

>  <chi0_C>
17.6646

>  <chi1>
17.9356

>  <chi1_C>
10.1162

>  <FCharge>
0

>  <VAdjEq>
0.327039

>  <VAdjMa>
6.35755

>  <zagreb>
198

>  <balabanJ>
1.14681

>  <PEOE_PC+>
3.32788

>  <PEOE_PC->
-3.32788

>  <PEOE_RPC+>
0.0886753

>  <PEOE_RPC->
0.107962

>  <PEOE_VSA+0>
90.6782

>  <PEOE_VSA+1>
96.4243

>  <PEOE_VSA+2>
20.2114

>  <PEOE_VSA+3>
17.238

>  <PEOE_VSA+4>
0

>  <PEOE_VSA+5>
47.3071

>  <PEOE_VSA+6>
0

>  <PEOE_VSA-0>
73.5294

>  <PEOE_VSA-1>
49.0196

>  <PEOE_VSA-2>
0

>  <PEOE_VSA-3>
0

>  <PEOE_VSA-4>
17.5912

>  <PEOE_VSA-5>
54.2677

>  <PEOE_VSA-6>
0.273782

>  <PEOE_VSA_FHYD>
0.743989

>  <PEOE_VSA_FNEG>
0.417288

>  <PEOE_VSA_FPNEG>
0.154612

>  <PEOE_VSA_FPOL>
0.256011

>  <PEOE_VSA_FPOS>
0.582712

>  <PEOE_VSA_FPPOS>
0.1014

>  <PEOE_VSA_HYD>
347.101

>  <PEOE_VSA_NEG>
194.682

>  <PEOE_VSA_PNEG>
72.1327

>  <PEOE_VSA_POL>
119.44

>  <PEOE_VSA_POS>
271.859

>  <PEOE_VSA_PPOS>
47.3071

>  <PC+>
6.996

>  <PC->
-6.997

>  <Q_PC+>
6.996

>  <Q_PC->
-6.997

>  <Q_RPC+>
0.0937679

>  <Q_RPC->
0.0943261

>  <Q_VSA_FHYD>
0.559871

>  <Q_VSA_FNEG>
0.471982

>  <Q_VSA_FPNEG>
0.164687

>  <Q_VSA_FPOL>
0.440129

>  <Q_VSA_FPOS>
0.528018

>  <Q_VSA_FPPOS>
0.275442

>  <Q_VSA_HYD>
261.203

>  <Q_VSA_NEG>
220.199

>  <Q_VSA_PNEG>
76.8331

>  <Q_VSA_POL>
205.338

>  <Q_VSA_POS>
246.342

>  <Q_VSA_PPOS>
128.505

>  <RPC+>
0.0937679

>  <RPC->
0.0943261

>  <lip_acc>
9

>  <lip_don>
2

>  <lip_druglike>
1

>  <lip_violation>
0

>  <opr_brigid>
28

>  <opr_leadlike>
0

>  <opr_nring>
5

>  <opr_nrot>
7

>  <opr_violation>
3

>  <E>
115.569

>  <E_ang>
18.3754

>  <E_ele>
12.5691

>  <E_nb>
75.7238

>  <E_oop>
0.179896

>  <E_sol>
-29.265

>  <E_stb>
0.813832

>  <E_str>
7.25418

>  <E_strain>
0.00639094

>  <E_tor>
13.2222

>  <E_vdw>
63.1547

>  <E_rele>
0

>  <E_rnb>
-7.10543e-014

>  <E_rsol>
-7.10543e-014

>  <E_rvdw>
0

>  <Kier1>
28.5259

>  <Kier2>
13.1094

>  <Kier3>
6.5025

>  <KierA1>
19.0417

>  <KierA2>
8.64407

>  <KierA3>
4.24974

>  <KierFlex>
4.44859

>  <logS>
-5.34768

>  <MNDO_dipole>
5.57379

>  <MNDO_E>
-151380

>  <MNDO_Eele>
-1.24164e+006

>  <MNDO_HF>
-58.4243

>  <MNDO_HOMO>
-9.16293

>  <MNDO_IP>
9.16293

>  <MNDO_LUMO>
-0.99549

>  <apol>
71.4544

>  <bpol>
35.6856

>  <mr>
13.5442

>  <dipole>
1.00957

>  <dipoleX>
0.307954

>  <dipoleY>
-0.0900024

>  <dipoleZ>
0.957235

>  <pmi>
14653

>  <pmiX>
10447.2

>  <pmiY>
2141.68

>  <pmiZ>
2064.15

>  <rgyr>
5.4162

>  <a_acc>
5

>  <a_acid>
0

>  <a_base>
0

>  <a_don>
2

>  <a_hyd>
23

>  <vsa_acc>
59.9503

>  <vsa_acid>
0

>  <vsa_base>
0

>  <vsa_don>
11.3652

>  <vsa_hyd>
316.345

>  <vsa_other>
58.4977

>  <vsa_pol>
71.3154

>  <PM3_dipole>
4.29094

>  <PM3_E>
-137501

>  <PM3_Eele>
-1.23582e+006

>  <PM3_HF>
-78.0167

>  <PM3_HOMO>
-9.18139

>  <PM3_IP>
9.18139

>  <PM3_LUMO>
-1.10559

>  <SlogP>
3.1216

>  <SlogP_VSA0>
0

>  <SlogP_VSA1>
62.5089

>  <SlogP_VSA2>
49.7688

>  <SlogP_VSA3>
73.7583

>  <SlogP_VSA4>
81.1434

>  <SlogP_VSA5>
0

>  <SlogP_VSA6>
0

>  <SlogP_VSA7>
215.578

>  <SlogP_VSA8>
0

>  <SlogP_VSA9>
17.288

>  <SMR>
13.3703

>  <SMR_VSA0>
95.4489

>  <SMR_VSA1>
37.9943

>  <SMR_VSA2>
25.9065

>  <SMR_VSA3>
9.55672

>  <SMR_VSA4>
25.0558

>  <SMR_VSA5>
210.861

>  <SMR_VSA6>
95.2223

>  <SMR_VSA7>
0

>  <ASA>
767.479

>  <ASA+>
358.035

>  <ASA->
312.388

>  <ASA_H>
537.71

>  <ASA_P>
229.769

>  <CASA+>
2504.81

>  <CASA->
2185.78

>  <DASA>
45.6472

>  <DCASA>
319.035

>  <FASA+>
0.466508

>  <FASA->
0.407031

>  <FASA_H>
0.700619

>  <FASA_P>
0.299381

>  <FCASA+>
3.26369

>  <FCASA->
2.848

>  <VSA>
488.681

>  <TPSA>
115.47

>  <density>
0.784668

>  <vdw_area>
466.541

>  <vdw_vol>
636.578

>  <vsurf_A>
4.02176

>  <vsurf_CP>
0.0682447

>  <vsurf_CW1>
2.63157

>  <vsurf_CW2>
2.16179

>  <vsurf_CW3>
1.43519

>  <vsurf_CW4>
0.782244

>  <vsurf_CW5>
0.38725

>  <vsurf_CW6>
0.16026

>  <vsurf_CW7>
0.0522486

>  <vsurf_CW8>
0.0260612

>  <vsurf_D1>
1010.75

>  <vsurf_D2>
594.125

>  <vsurf_D3>
447.5

>  <vsurf_D4>
382.5

>  <vsurf_D5>
330.125

>  <vsurf_D6>
275.25

>  <vsurf_D7>
167

>  <vsurf_D8>
93.875

>  <vsurf_DD12>
0.5

>  <vsurf_DD13>
0.707107

>  <vsurf_DD23>
0.5

>  <vsurf_DW12>
0.707107

>  <vsurf_DW13>
0.5

>  <vsurf_DW23>
0.5

>  <vsurf_EDmin1>
-3.0995

>  <vsurf_EDmin2>
-3.05957

>  <vsurf_EDmin3>
-3.02141

>  <vsurf_EWmin1>
-7.80762

>  <vsurf_EWmin2>
-7.70559

>  <vsurf_EWmin3>
-7.51273

>  <vsurf_G>
1.41572

>  <vsurf_HB1>
420

>  <vsurf_HB2>
484.5

>  <vsurf_HB3>
457.625

>  <vsurf_HB4>
213.75

>  <vsurf_HB5>
84.875

>  <vsurf_HB6>
32.625

>  <vsurf_HB7>
12

>  <vsurf_HB8>
5

>  <vsurf_HL1>
0.21257

>  <vsurf_HL2>
0.0921569

>  <vsurf_ID1>
1.26441

>  <vsurf_ID2>
1.1933

>  <vsurf_ID3>
1.36513

>  <vsurf_ID4>
1.61792

>  <vsurf_ID5>
1.78802

>  <vsurf_ID6>
1.7304

>  <vsurf_ID7>
0.851613

>  <vsurf_ID8>
0.845464

>  <vsurf_IW1>
0.414109

>  <vsurf_IW2>
0.898935

>  <vsurf_IW3>
1.42125

>  <vsurf_IW4>
2.11284

>  <vsurf_IW5>
3.11129

>  <vsurf_IW6>
4.88721

>  <vsurf_IW7>
7.90384

>  <vsurf_IW8>
8.82124

>  <vsurf_R>
1.47765

>  <vsurf_S>
700.691

>  <vsurf_V>
1035.38

>  <vsurf_W1>
1742

>  <vsurf_W2>
1087.88

>  <vsurf_W3>
596.125

>  <vsurf_W4>
240.5

>  <vsurf_W5>
95.125

>  <vsurf_W6>
35.25

>  <vsurf_W7>
12

>  <vsurf_W8>
5

>  <vsurf_Wp1>
1322

>  <vsurf_Wp2>
603.375

>  <vsurf_Wp3>
138.5

>  <vsurf_Wp4>
26.75

>  <vsurf_Wp5>
10.25

>  <vsurf_Wp6>
2.625

>  <vsurf_Wp7>
0

>  <vsurf_Wp8>
0

>  <dens>
1.10326

>  <glob>
0.0645558

>  <std_dim1>
5.17637

>  <std_dim2>
2.02102

>  <std_dim3>
1.3152

>  <vol>
452.75

>  <logP(o/w)>
2.358

$$$$
D11.cdx
  MOE2008           3D

 55 59  0  0  0  0  0  0  0  0999 V2000
   -4.6520  -18.3080   -1.3910 C   0  0  0  0  0  0  0  0  0  0  0  0
   -5.5900  -17.7860   -1.5630 H   0  0  0  0  0  0  0  0  0  0  0  0
   -4.6490  -19.5860   -0.8400 C   0  0  0  0  0  0  0  0  0  0  0  0
   -5.6020  -20.0560   -0.6000 H   0  0  0  0  0  0  0  0  0  0  0  0
   -3.4420  -20.2640   -0.6050 C   0  0  0  0  0  0  0  0  0  0  0  0
   -2.2530  -19.6370   -1.0170 C   0  0  0  0  0  0  0  0  0  0  0  0
   -2.2190  -18.3490   -1.5600 C   0  0  0  0  0  0  0  0  0  0  0  0
   -3.4510  -17.6820   -1.7380 C   0  0  0  0  0  0  0  0  0  0  0  0
   -0.9580  -20.1050   -0.9940 N   0  0  0  0  0  0  0  0  0  0  0  0
   -0.6920  -21.0320   -0.6830 H   0  0  0  0  0  0  0  0  0  0  0  0
   -0.1030  -19.1440   -1.4560 C   0  0  0  0  0  0  0  0  0  0  0  0
    0.9610  -19.3430   -1.4940 H   0  0  0  0  0  0  0  0  0  0  0  0
   -0.8400  -18.0270   -1.8080 C   0  0  0  0  0  0  0  0  0  0  0  0
   -0.2760  -16.7830   -2.3230 C   0  0  0  0  0  0  0  0  0  0  0  0
    1.2080  -16.6920   -2.6320 C   0  0  0  0  0  0  0  0  0  0  0  0
    2.0440  -16.2720   -1.5980 N   0  0  0  0  0  0  0  0  0  0  0  0
    3.4860  -16.1810   -1.8320 C   0  0  0  0  0  0  0  0  0  0  0  0
    3.7760  -16.8130   -2.6770 H   0  0  0  0  0  0  0  0  0  0  0  0
    3.6950  -15.1410   -2.1110 H   0  0  0  0  0  0  0  0  0  0  0  0
    4.2910  -16.5640   -0.5860 C   0  0  0  0  0  0  0  0  0  0  0  0
    5.3610  -16.4240   -0.7750 H   0  0  0  0  0  0  0  0  0  0  0  0
    4.1200  -17.6210   -0.3540 H   0  0  0  0  0  0  0  0  0  0  0  0
    3.8950  -15.7980    0.6060 N   0  0  0  0  0  0  0  0  0  0  0  0
    2.5900  -15.1320    0.5620 C   0  0  0  0  0  0  0  0  0  0  0  0
    2.2110  -14.9670    1.5760 H   0  0  0  0  0  0  0  0  0  0  0  0
    2.7600  -14.1460    0.1130 H   0  0  0  0  0  0  0  0  0  0  0  0
    1.5600  -15.9090   -0.2600 C   0  0  0  0  0  0  0  0  0  0  0  0
    0.6360  -15.3280   -0.3480 H   0  0  0  0  0  0  0  0  0  0  0  0
    1.3150  -16.8490    0.2490 H   0  0  0  0  0  0  0  0  0  0  0  0
    4.6820  -15.6360    1.7460 C   0  0  0  0  0  0  0  0  0  0  0  0
    5.9840  -16.3370    1.8200 C   0  0  0  0  0  0  0  0  0  0  0  0
   -0.9350  -15.7660   -2.5140 O   0  0  0  0  0  0  0  0  0  0  0  0
    1.5720  -17.0050   -3.7600 O   0  0  0  0  0  0  0  0  0  0  0  0
    4.3750  -14.9250    2.6980 O   0  0  0  0  0  0  0  0  0  0  0  0
   -3.5180  -16.4490   -2.2560 F   0  0  0  0  0  0  0  0  0  0  0  0
    6.0430  -17.7340    1.8540 C   0  0  0  0  0  0  0  0  0  0  0  0
    5.1360  -18.3300    1.8200 H   0  0  0  0  0  0  0  0  0  0  0  0
    7.2830  -18.3660    1.9490 C   0  0  0  0  0  0  0  0  0  0  0  0
    7.3430  -19.4510    1.9750 H   0  0  0  0  0  0  0  0  0  0  0  0
    8.4520  -17.6050    2.0240 C   0  0  0  0  0  0  0  0  0  0  0  0
    9.4170  -18.1000    2.1030 H   0  0  0  0  0  0  0  0  0  0  0  0
    8.3860  -16.2100    2.0120 C   0  0  0  0  0  0  0  0  0  0  0  0
    9.2980  -15.6230    2.0840 H   0  0  0  0  0  0  0  0  0  0  0  0
    7.1500  -15.5720    1.9160 C   0  0  0  0  0  0  0  0  0  0  0  0
    7.0970  -14.4860    1.9180 H   0  0  0  0  0  0  0  0  0  0  0  0
   -3.4480  -21.6160   -0.0040 C   0  0  0  0  0  0  0  0  0  0  0  0
   -4.1300  -21.8810    1.1610 N   0  0  0  0  0  0  0  0  0  0  0  0
   -4.3040  -22.8620    1.3540 H   0  0  0  0  0  0  0  0  0  0  0  0
   -2.8150  -22.4930   -0.5870 O   0  0  0  0  0  0  0  0  0  0  0  0
   -4.5750  -21.0080    2.1240 C   0  0  0  0  0  0  0  0  0  0  0  0
   -4.2750  -19.6800    2.2530 N   0  0  0  0  0  0  0  0  0  0  0  0
   -3.7010  -19.0720    1.6850 H   0  0  0  0  0  0  0  0  0  0  0  0
   -4.8740  -19.1740    3.3390 N   0  0  0  0  0  0  0  0  0  0  0  0
   -5.5080  -20.1980    3.8900 N   0  0  0  0  0  0  0  0  0  0  0  0
   -5.3180  -21.3450    3.1570 N   0  0  0  0  0  0  0  0  0  0  0  0
  1  2  1  0  0  0  0
  1  3  1  0  0  0  0
  1  8  2  0  0  0  0
  3  4  1  0  0  0  0
  3  5  2  0  0  0  0
  5  6  1  0  0  0  0
  5 46  1  0  0  0  0
  6  7  2  0  0  0  0
  6  9  1  0  0  0  0
  7  8  1  0  0  0  0
  7 13  1  0  0  0  0
  8 35  1  0  0  0  0
  9 10  1  0  0  0  0
  9 11  1  0  0  0  0
 11 12  1  0  0  0  0
 11 13  2  0  0  0  0
 13 14  1  0  0  0  0
 14 15  1  0  0  0  0
 14 32  2  0  0  0  0
 15 16  1  0  0  0  0
 15 33  2  0  0  0  0
 16 17  1  0  0  0  0
 16 27  1  0  0  0  0
 17 18  1  0  0  0  0
 17 19  1  0  0  0  0
 17 20  1  0  0  0  0
 20 21  1  0  0  0  0
 20 22  1  0  0  0  0
 20 23  1  0  0  0  0
 23 24  1  0  0  0  0
 23 30  1  0  0  0  0
 24 25  1  0  0  0  0
 24 26  1  0  0  0  0
 24 27  1  0  0  0  0
 27 28  1  0  0  0  0
 27 29  1  0  0  0  0
 30 31  1  0  0  0  0
 30 34  2  0  0  0  0
 31 36  1  0  0  0  0
 31 44  2  0  0  0  0
 36 37  1  0  0  0  0
 36 38  2  0  0  0  0
 38 39  1  0  0  0  0
 38 40  1  0  0  0  0
 40 41  1  0  0  0  0
 40 42  2  0  0  0  0
 42 43  1  0  0  0  0
 42 44  1  0  0  0  0
 44 45  1  0  0  0  0
 46 47  1  0  0  0  0
 46 49  2  0  0  0  0
 47 48  1  0  0  0  0
 47 50  1  0  0  0  0
 50 51  1  0  0  0  0
 50 55  2  0  0  0  0
 51 52  1  0  0  0  0
 51 53  1  0  0  0  0
 53 54  2  0  0  0  0
 54 55  1  0  0  0  0
M  END
>  <Activity>
9.3979

>  <AM1_dipole>
6.12605

>  <AM1_E>
-152726

>  <AM1_Eele>
-1.22153e+006

>  <AM1_HF>
58.5034

>  <AM1_HOMO>
-9.59539

>  <AM1_IP>
9.59539

>  <AM1_LUMO>
-1.5396

>  <diameter>
19

>  <petitjean>
0.473684

>  <petitjeanSC>
0.9

>  <radius>
10

>  <VDistEq>
3.98009

>  <VDistMa>
10.023

>  <weinerPath>
4461

>  <weinerPol>
60

>  <BCUT_PEOE_0>
-2.71188

>  <BCUT_PEOE_1>
-0.640569

>  <BCUT_PEOE_2>
0.698844

>  <BCUT_PEOE_3>
2.65031

>  <BCUT_SLOGP_0>
-2.86001

>  <BCUT_SLOGP_1>
-0.53808

>  <BCUT_SLOGP_2>
0.746782

>  <BCUT_SLOGP_3>
2.50336

>  <BCUT_SMR_0>
-2.43203

>  <BCUT_SMR_1>
-0.435634

>  <BCUT_SMR_2>
0.854311

>  <BCUT_SMR_3>
2.92027

>  <GCUT_PEOE_0>
-0.857753

>  <GCUT_PEOE_1>
-0.443893

>  <GCUT_PEOE_2>
0.080099

>  <GCUT_PEOE_3>
2.70848

>  <GCUT_SLOGP_0>
-0.993695

>  <GCUT_SLOGP_1>
-0.418882

>  <GCUT_SLOGP_2>
0.164454

>  <GCUT_SLOGP_3>
2.68677

>  <GCUT_SMR_0>
-0.508916

>  <GCUT_SMR_1>
-0.216057

>  <GCUT_SMR_2>
0.231825

>  <GCUT_SMR_3>
2.9811

>  <a_aro>
20

>  <a_count>
55

>  <a_IC>
101.222

>  <a_ICM>
1.8404

>  <a_nH>
19

>  <b_1rotN>
7

>  <b_1rotR>
0.175

>  <b_ar>
21

>  <b_count>
59

>  <b_double>
4

>  <b_rotN>
8

>  <b_rotR>
0.2

>  <b_single>
34

>  <b_triple>
0

>  <chi0v>
18.6943

>  <chi0v_C>
12.9472

>  <chi1v>
10.9635

>  <chi1v_C>
6.11004

>  <chiral>
0

>  <chiral_u>
0

>  <nmol>
1

>  <reactive>
0

>  <rings>
5

>  <Weight>
490.455

>  <a_heavy>
36

>  <a_nB>
0

>  <a_nBr>
0

>  <a_nC>
23

>  <a_nCl>
0

>  <a_nF>
1

>  <a_nI>
0

>  <a_nN>
8

>  <a_nO>
4

>  <a_nP>
0

>  <a_nS>
0

>  <b_heavy>
40

>  <chi0>
25.2335

>  <chi0_C>
14.8361

>  <chi1>
17.4356

>  <chi1_C>
8.20791

>  <FCharge>
0

>  <VAdjEq>
0.334268

>  <VAdjMa>
6.32193

>  <zagreb>
194

>  <balabanJ>
1.15058

>  <PEOE_PC+>
3.33494

>  <PEOE_PC->
-3.33494

>  <PEOE_RPC+>
0.0884875

>  <PEOE_RPC->
0.107733

>  <PEOE_VSA+0>
73.9323

>  <PEOE_VSA+1>
79.3628

>  <PEOE_VSA+2>
9.02085

>  <PEOE_VSA+3>
25.857

>  <PEOE_VSA+4>
15.6816

>  <PEOE_VSA+5>
47.3071

>  <PEOE_VSA+6>
0

>  <PEOE_VSA-0>
75.3386

>  <PEOE_VSA-1>
46.1858

>  <PEOE_VSA-2>
0

>  <PEOE_VSA-3>
0

>  <PEOE_VSA-4>
15.784

>  <PEOE_VSA-5>
54.4046

>  <PEOE_VSA-6>
0.136891

>  <PEOE_VSA_FHYD>
0.699073

>  <PEOE_VSA_FNEG>
0.433058

>  <PEOE_VSA_FPNEG>
0.158744

>  <PEOE_VSA_FPOL>
0.300927

>  <PEOE_VSA_FPOS>
0.566942

>  <PEOE_VSA_FPPOS>
0.142183

>  <PEOE_VSA_HYD>
309.697

>  <PEOE_VSA_NEG>
191.85

>  <PEOE_VSA_PNEG>
70.3255

>  <PEOE_VSA_POL>
133.314

>  <PEOE_VSA_POS>
251.162

>  <PEOE_VSA_PPOS>
62.9887

>  <PC+>
6.629

>  <PC->
-6.63

>  <Q_PC+>
6.629

>  <Q_PC->
-6.63

>  <Q_RPC+>
0.0989591

>  <Q_RPC->
0.0995475

>  <Q_VSA_FHYD>
0.460011

>  <Q_VSA_FNEG>
0.452205

>  <Q_VSA_FPNEG>
0.211577

>  <Q_VSA_FPOL>
0.539989

>  <Q_VSA_FPOS>
0.547795

>  <Q_VSA_FPPOS>
0.328412

>  <Q_VSA_HYD>
203.79

>  <Q_VSA_NEG>
200.332

>  <Q_VSA_PNEG>
93.731

>  <Q_VSA_POL>
239.221

>  <Q_VSA_POS>
242.679

>  <Q_VSA_PPOS>
145.49

>  <RPC+>
0.0989591

>  <RPC->
0.0995475

>  <lip_acc>
12

>  <lip_don>
3

>  <lip_druglike>
1

>  <lip_violation>
1

>  <opr_brigid>
27

>  <opr_leadlike>
0

>  <opr_nring>
5

>  <opr_nrot>
7

>  <opr_violation>
3

>  <E>
111.744

>  <E_ang>
16.793

>  <E_ele>
22.9453

>  <E_nb>
73.4836

>  <E_oop>
0.167202

>  <E_sol>
-37.334

>  <E_stb>
0.706304

>  <E_str>
6.41032

>  <E_strain>
0.00537409

>  <E_tor>
14.1834

>  <E_vdw>
50.5383

>  <E_rele>
0

>  <E_rnb>
-8.52651e-014

>  <E_rsol>
-8.52651e-014

>  <E_rvdw>
0

>  <Kier1>
27.5625

>  <Kier2>
12.4531

>  <Kier3>
6.11248

>  <KierA1>
18.1919

>  <KierA2>
8.11305

>  <KierA3>
3.94599

>  <KierFlex>
4.09977

>  <logS>
-4.84688

>  <MNDO_dipole>
7.19365

>  <MNDO_E>
-152926

>  <MNDO_Eele>
-1.2159e+006

>  <MNDO_HF>
-31.1375

>  <MNDO_HOMO>
-9.49967

>  <MNDO_IP>
9.49967

>  <MNDO_LUMO>
-1.34226

>  <apol>
65.7141

>  <bpol>
31.7459

>  <mr>
12.582

>  <dipole>
1.32386

>  <dipoleX>
0.980368

>  <dipoleY>
-0.87294

>  <dipoleZ>
-0.171637

>  <pmi>
13269.5

>  <pmiX>
9028.66

>  <pmiY>
2264.6

>  <pmiZ>
1976.28

>  <rgyr>
5.2015

>  <a_acc>
8

>  <a_acid>
0

>  <a_base>
0

>  <a_don>
5

>  <a_hyd>
19

>  <vsa_acc>
67.4272

>  <vsa_acid>
0

>  <vsa_base>
0

>  <vsa_don>
11.3652

>  <vsa_hyd>
248.62

>  <vsa_other>
62.9887

>  <vsa_pol>
110.794

>  <PM3_dipole>
5.62166

>  <PM3_E>
-136678

>  <PM3_Eele>
-1.19822e+006

>  <PM3_HF>
-16.302

>  <PM3_HOMO>
-9.68376

>  <PM3_IP>
9.68376

>  <PM3_LUMO>
-1.59202

>  <SlogP>
1.2397

>  <SlogP_VSA0>
0

>  <SlogP_VSA1>
95.4673

>  <SlogP_VSA2>
66.4318

>  <SlogP_VSA3>
73.7583

>  <SlogP_VSA4>
81.1434

>  <SlogP_VSA5>
0

>  <SlogP_VSA6>
0

>  <SlogP_VSA7>
145.434

>  <SlogP_VSA8>
0

>  <SlogP_VSA9>
16.8592

>  <SMR>
12.3644

>  <SMR_VSA0>
95.4489

>  <SMR_VSA1>
70.9527

>  <SMR_VSA2>
42.5696

>  <SMR_VSA3>
9.55672

>  <SMR_VSA4>
24.6269

>  <SMR_VSA5>
140.717

>  <SMR_VSA6>
95.2223

>  <SMR_VSA7>
0

>  <ASA>
733.945

>  <ASA+>
275.477

>  <ASA->
318.735

>  <ASA_H>
442.911

>  <ASA_P>
291.035

>  <CASA+>
1826.13

>  <CASA->
2113.21

>  <DASA>
43.2582

>  <DCASA>
287.077

>  <FASA+>
0.375336

>  <FASA->
0.434276

>  <FASA_H>
0.603465

>  <FASA_P>
0.396535

>  <FCASA+>
2.48811

>  <FCASA->
2.87925

>  <VSA>
461.332

>  <TPSA>
157.04

>  <density>
0.832238

>  <vdw_area>
443.012

>  <vdw_vol>
589.321

>  <vsurf_A>
4.81347

>  <vsurf_CP>
0.0433996

>  <vsurf_CW1>
2.75342

>  <vsurf_CW2>
2.39175

>  <vsurf_CW3>
1.81119

>  <vsurf_CW4>
1.0553

>  <vsurf_CW5>
0.592537

>  <vsurf_CW6>
0.276417

>  <vsurf_CW7>
0.0502485

>  <vsurf_CW8>
0.0114292

>  <vsurf_D1>
858.25

>  <vsurf_D2>
515.875

>  <vsurf_D3>
380.25

>  <vsurf_D4>
316.75

>  <vsurf_D5>
262.75

>  <vsurf_D6>
214.25

>  <vsurf_D7>
138.25

>  <vsurf_D8>
88.125

>  <vsurf_DD12>
0.5

>  <vsurf_DD13>
0.707107

>  <vsurf_DD23>
0.866025

>  <vsurf_DW12>
0.707107

>  <vsurf_DW13>
0.707107

>  <vsurf_DW23>
0.707107

>  <vsurf_EDmin1>
-3.04347

>  <vsurf_EDmin2>
-2.94937

>  <vsurf_EDmin3>
-2.89277

>  <vsurf_EWmin1>
-6.7469

>  <vsurf_EWmin2>
-6.43337

>  <vsurf_EWmin3>
-6.36052

>  <vsurf_G>
1.40768

>  <vsurf_HB1>
560

>  <vsurf_HB2>
701

>  <vsurf_HB3>
585.375

>  <vsurf_HB4>
282.375

>  <vsurf_HB5>
125.25

>  <vsurf_HB6>
44.75

>  <vsurf_HB7>
9.5

>  <vsurf_HB8>
2.125

>  <vsurf_HL1>
0.373439

>  <vsurf_HL2>
0.156275

>  <vsurf_ID1>
1.80408

>  <vsurf_ID2>
1.7084

>  <vsurf_ID3>
1.90588

>  <vsurf_ID4>
2.30285

>  <vsurf_ID5>
2.72561

>  <vsurf_ID6>
2.55177

>  <vsurf_ID7>
0.978586

>  <vsurf_ID8>
0.782616

>  <vsurf_IW1>
0.933019

>  <vsurf_IW2>
1.53107

>  <vsurf_IW3>
2.1054

>  <vsurf_IW4>
2.68785

>  <vsurf_IW5>
3.36809

>  <vsurf_IW6>
4.46687

>  <vsurf_IW7>
7.32786

>  <vsurf_IW8>
8.38151

>  <vsurf_R>
1.45624

>  <vsurf_S>
669.015

>  <vsurf_V>
974.25

>  <vsurf_W1>
1871.5

>  <vsurf_W2>
1284.88

>  <vsurf_W3>
755.25

>  <vsurf_W4>
326.25

>  <vsurf_W5>
142

>  <vsurf_W6>
49.5

>  <vsurf_W7>
9.625

>  <vsurf_W8>
2.125

>  <vsurf_Wp1>
1311.5

>  <vsurf_Wp2>
583.875

>  <vsurf_Wp3>
169.875

>  <vsurf_Wp4>
43.875

>  <vsurf_Wp5>
16.75

>  <vsurf_Wp6>
4.75

>  <vsurf_Wp7>
0.125

>  <vsurf_Wp8>
0

>  <dens>
1.16845

>  <glob>
0.0858453

>  <std_dim1>
4.72601

>  <std_dim2>
2.01635

>  <std_dim3>
1.38469

>  <vol>
419.75

>  <logP(o/w)>
0.924

$$$$
D12.cdx
  MOE2008           3D

 55 59  0  0  0  0  0  0  0  0999 V2000
   -4.9660   17.7860   -1.7310 C   0  0  0  0  0  0  0  0  0  0  0  0
   -5.8830   18.3200   -1.9640 H   0  0  0  0  0  0  0  0  0  0  0  0
   -5.0170   16.5050   -1.1870 C   0  0  0  0  0  0  0  0  0  0  0  0
   -5.9930   16.0500   -1.0260 H   0  0  0  0  0  0  0  0  0  0  0  0
   -3.8420   15.8060   -0.8620 C   0  0  0  0  0  0  0  0  0  0  0  0
   -2.6200   16.4230   -1.2020 C   0  0  0  0  0  0  0  0  0  0  0  0
   -2.5300   17.7060   -1.7510 C   0  0  0  0  0  0  0  0  0  0  0  0
   -3.7370   18.3940   -2.0000 C   0  0  0  0  0  0  0  0  0  0  0  0
   -1.3360   15.9350   -1.1060 N   0  0  0  0  0  0  0  0  0  0  0  0
   -1.1100   15.0070   -0.7660 H   0  0  0  0  0  0  0  0  0  0  0  0
   -0.4380   16.8710   -1.5380 C   0  0  0  0  0  0  0  0  0  0  0  0
    0.6220   16.6480   -1.5230 H   0  0  0  0  0  0  0  0  0  0  0  0
   -1.1340   17.9970   -1.9400 C   0  0  0  0  0  0  0  0  0  0  0  0
   -0.5240   19.2190   -2.4540 C   0  0  0  0  0  0  0  0  0  0  0  0
    0.9520   19.2380   -2.8230 C   0  0  0  0  0  0  0  0  0  0  0  0
    1.8450   19.6350   -1.8290 N   0  0  0  0  0  0  0  0  0  0  0  0
    3.2810   19.6050   -2.1070 C   0  0  0  0  0  0  0  0  0  0  0  0
    3.4970   18.9050   -2.9210 H   0  0  0  0  0  0  0  0  0  0  0  0
    3.5560   20.6090   -2.4540 H   0  0  0  0  0  0  0  0  0  0  0  0
    4.0950   19.2350   -0.8630 C   0  0  0  0  0  0  0  0  0  0  0  0
    5.1650   19.2730   -1.0920 H   0  0  0  0  0  0  0  0  0  0  0  0
    3.8460   18.2130   -0.5560 H   0  0  0  0  0  0  0  0  0  0  0  0
    3.8020   20.1080    0.2840 N   0  0  0  0  0  0  0  0  0  0  0  0
    2.5370   20.8460    0.2460 C   0  0  0  0  0  0  0  0  0  0  0  0
    2.2080   21.0880    1.2620 H   0  0  0  0  0  0  0  0  0  0  0  0
    2.7460   21.7950   -0.2650 H   0  0  0  0  0  0  0  0  0  0  0  0
    1.4330   20.0860   -0.4940 C   0  0  0  0  0  0  0  0  0  0  0  0
    0.5390   20.7120   -0.5760 H   0  0  0  0  0  0  0  0  0  0  0  0
    1.1610   19.1860    0.0700 H   0  0  0  0  0  0  0  0  0  0  0  0
    4.6490   20.3000    1.3750 C   0  0  0  0  0  0  0  0  0  0  0  0
    5.8860   19.4930    1.4680 C   0  0  0  0  0  0  0  0  0  0  0  0
   -1.1400   20.2700   -2.6030 O   0  0  0  0  0  0  0  0  0  0  0  0
    1.2600   18.8880   -3.9570 O   0  0  0  0  0  0  0  0  0  0  0  0
    4.4450   21.1170    2.2680 O   0  0  0  0  0  0  0  0  0  0  0  0
   -3.7520   19.6250   -2.5310 F   0  0  0  0  0  0  0  0  0  0  0  0
    5.8230   18.1020    1.6040 C   0  0  0  0  0  0  0  0  0  0  0  0
    4.8650   17.5900    1.6360 H   0  0  0  0  0  0  0  0  0  0  0  0
    7.0040   17.3690    1.7160 C   0  0  0  0  0  0  0  0  0  0  0  0
    6.9670   16.2870    1.8210 H   0  0  0  0  0  0  0  0  0  0  0  0
    8.2380   18.0240    1.7070 C   0  0  0  0  0  0  0  0  0  0  0  0
    9.1560   17.4500    1.7990 H   0  0  0  0  0  0  0  0  0  0  0  0
    8.2950   19.4140    1.5940 C   0  0  0  0  0  0  0  0  0  0  0  0
    9.2580   19.9200    1.6000 H   0  0  0  0  0  0  0  0  0  0  0  0
    7.1190   20.1540    1.4800 C   0  0  0  0  0  0  0  0  0  0  0  0
    7.1630   21.2370    1.4040 H   0  0  0  0  0  0  0  0  0  0  0  0
   -3.8940   14.4250   -0.3120 C   0  0  0  0  0  0  0  0  0  0  0  0
   -4.8450   14.0200    0.5930 N   0  0  0  0  0  0  0  0  0  0  0  0
   -5.0560   13.0290    0.5810 H   0  0  0  0  0  0  0  0  0  0  0  0
   -3.0730   13.6230   -0.7550 O   0  0  0  0  0  0  0  0  0  0  0  0
   -5.5350   14.7270    1.5480 C   0  0  0  0  0  0  0  0  0  0  0  0
   -5.0020   16.2430    2.1330 S   0  0  0  0  0  0  0  0  0  0  0  0
   -6.3230   16.1970    3.2240 C   0  0  0  0  0  0  0  0  0  0  0  0
   -6.5360   16.9950    3.9220 H   0  0  0  0  0  0  0  0  0  0  0  0
   -7.0520   15.1060    3.1500 N   0  0  0  0  0  0  0  0  0  0  0  0
   -6.5690   14.2350    2.1930 N   0  0  0  0  0  0  0  0  0  0  0  0
  1  2  1  0  0  0  0
  1  3  1  0  0  0  0
  1  8  2  0  0  0  0
  3  4  1  0  0  0  0
  3  5  2  0  0  0  0
  5  6  1  0  0  0  0
  5 46  1  0  0  0  0
  6  7  2  0  0  0  0
  6  9  1  0  0  0  0
  7  8  1  0  0  0  0
  7 13  1  0  0  0  0
  8 35  1  0  0  0  0
  9 10  1  0  0  0  0
  9 11  1  0  0  0  0
 11 12  1  0  0  0  0
 11 13  2  0  0  0  0
 13 14  1  0  0  0  0
 14 15  1  0  0  0  0
 14 32  2  0  0  0  0
 15 16  1  0  0  0  0
 15 33  2  0  0  0  0
 16 17  1  0  0  0  0
 16 27  1  0  0  0  0
 17 18  1  0  0  0  0
 17 19  1  0  0  0  0
 17 20  1  0  0  0  0
 20 21  1  0  0  0  0
 20 22  1  0  0  0  0
 20 23  1  0  0  0  0
 23 24  1  0  0  0  0
 23 30  1  0  0  0  0
 24 25  1  0  0  0  0
 24 26  1  0  0  0  0
 24 27  1  0  0  0  0
 27 28  1  0  0  0  0
 27 29  1  0  0  0  0
 30 31  1  0  0  0  0
 30 34  2  0  0  0  0
 31 36  1  0  0  0  0
 31 44  2  0  0  0  0
 36 37  1  0  0  0  0
 36 38  2  0  0  0  0
 38 39  1  0  0  0  0
 38 40  1  0  0  0  0
 40 41  1  0  0  0  0
 40 42  2  0  0  0  0
 42 43  1  0  0  0  0
 42 44  1  0  0  0  0
 44 45  1  0  0  0  0
 46 47  1  0  0  0  0
 46 49  2  0  0  0  0
 47 48  1  0  0  0  0
 47 50  1  0  0  0  0
 50 51  1  0  0  0  0
 50 55  2  0  0  0  0
 51 52  1  0  0  0  0
 52 53  1  0  0  0  0
 52 54  2  0  0  0  0
 54 55  1  0  0  0  0
M  END
>  <Activity>
9.7212

>  <AM1_dipole>
5.58346

>  <AM1_E>
-150657

>  <AM1_Eele>
-1.21013e+006

>  <AM1_HF>
2.00147

>  <AM1_HOMO>
-9.25463

>  <AM1_IP>
9.25463

>  <AM1_LUMO>
-1.25144

>  <diameter>
19

>  <petitjean>
0.473684

>  <petitjeanSC>
0.9

>  <radius>
10

>  <VDistEq>
3.98009

>  <VDistMa>
10.023

>  <weinerPath>
4461

>  <weinerPol>
60

>  <BCUT_PEOE_0>
-2.71188

>  <BCUT_PEOE_1>
-0.640102

>  <BCUT_PEOE_2>
0.61573

>  <BCUT_PEOE_3>
2.65031

>  <BCUT_SLOGP_0>
-2.86001

>  <BCUT_SLOGP_1>
-0.53808

>  <BCUT_SLOGP_2>
0.74959

>  <BCUT_SLOGP_3>
2.50336

>  <BCUT_SMR_0>
-2.43203

>  <BCUT_SMR_1>
-0.429549

>  <BCUT_SMR_2>
0.854311

>  <BCUT_SMR_3>
2.92027

>  <GCUT_PEOE_0>
-0.85785

>  <GCUT_PEOE_1>
-0.443907

>  <GCUT_PEOE_2>
0.080099

>  <GCUT_PEOE_3>
2.70651

>  <GCUT_SLOGP_0>
-0.99338

>  <GCUT_SLOGP_1>
-0.350362

>  <GCUT_SLOGP_2>
0.188304

>  <GCUT_SLOGP_3>
2.69168

>  <GCUT_SMR_0>
-0.508915

>  <GCUT_SMR_1>
-0.216057

>  <GCUT_SMR_2>
0.237285

>  <GCUT_SMR_3>
2.98208

>  <a_aro>
20

>  <a_count>
55

>  <a_IC>
103.715

>  <a_ICM>
1.88573

>  <a_nH>
19

>  <b_1rotN>
7

>  <b_1rotR>
0.175

>  <b_ar>
21

>  <b_count>
59

>  <b_double>
4

>  <b_rotN>
8

>  <b_rotR>
0.2

>  <b_single>
34

>  <b_triple>
0

>  <chi0v>
19.5491

>  <chi0v_C>
13.5246

>  <chi1v>
11.8676

>  <chi1v_C>
6.11004

>  <chiral>
0

>  <chiral_u>
0

>  <nmol>
1

>  <reactive>
0

>  <rings>
5

>  <Weight>
506.518

>  <a_heavy>
36

>  <a_nB>
0

>  <a_nBr>
0

>  <a_nC>
24

>  <a_nCl>
0

>  <a_nF>
1

>  <a_nI>
0

>  <a_nN>
6

>  <a_nO>
4

>  <a_nP>
0

>  <a_nS>
1

>  <b_heavy>
40

>  <chi0>
25.2335

>  <chi0_C>
15.5432

>  <chi1>
17.4356

>  <chi1_C>
8.20791

>  <FCharge>
0

>  <VAdjEq>
0.334268

>  <VAdjMa>
6.32193

>  <zagreb>
194

>  <balabanJ>
1.15058

>  <PEOE_PC+>
3.29008

>  <PEOE_PC->
-3.29008

>  <PEOE_RPC+>
0.0896941

>  <PEOE_RPC->
0.109202

>  <PEOE_VSA+0>
92.6543

>  <PEOE_VSA+1>
83.6282

>  <PEOE_VSA+2>
22.1875

>  <PEOE_VSA+3>
17.238

>  <PEOE_VSA+4>
19.7606

>  <PEOE_VSA+5>
47.3071

>  <PEOE_VSA+6>
0

>  <PEOE_VSA-0>
49.0196

>  <PEOE_VSA-1>
36.7647

>  <PEOE_VSA-2>
9.42104

>  <PEOE_VSA-3>
9.42104

>  <PEOE_VSA-4>
11.9086

>  <PEOE_VSA-5>
54.2677

>  <PEOE_VSA-6>
0.273782

>  <PEOE_VSA_FHYD>
0.705812

>  <PEOE_VSA_FNEG>
0.376943

>  <PEOE_VSA_FPNEG>
0.146414

>  <PEOE_VSA_FPOL>
0.294188

>  <PEOE_VSA_FPOS>
0.623057

>  <PEOE_VSA_FPPOS>
0.147774

>  <PEOE_VSA_HYD>
320.334

>  <PEOE_VSA_NEG>
171.077

>  <PEOE_VSA_PNEG>
66.4501

>  <PEOE_VSA_POL>
133.518

>  <PEOE_VSA_POS>
282.776

>  <PEOE_VSA_PPOS>
67.0677

>  <PC+>
6.629

>  <PC->
-6.63

>  <Q_PC+>
6.629

>  <Q_PC->
-6.63

>  <Q_RPC+>
0.0989591

>  <Q_RPC->
0.0995475

>  <Q_VSA_FHYD>
0.472966

>  <Q_VSA_FNEG>
0.476706

>  <Q_VSA_FPNEG>
0.198286

>  <Q_VSA_FPOL>
0.527034

>  <Q_VSA_FPOS>
0.523294

>  <Q_VSA_FPPOS>
0.328748

>  <Q_VSA_HYD>
214.657

>  <Q_VSA_NEG>
216.354

>  <Q_VSA_PNEG>
89.9926

>  <Q_VSA_POL>
239.196

>  <Q_VSA_POS>
237.498

>  <Q_VSA_PPOS>
149.203

>  <RPC+>
0.0989591

>  <RPC->
0.0995475

>  <lip_acc>
10

>  <lip_don>
2

>  <lip_druglike>
1

>  <lip_violation>
1

>  <opr_brigid>
27

>  <opr_leadlike>
0

>  <opr_nring>
5

>  <opr_nrot>
7

>  <opr_violation>
3

>  <E>
113.557

>  <E_ang>
20.3279

>  <E_ele>
17.4086

>  <E_nb>
69.4355

>  <E_oop>
0.372047

>  <E_sol>
-33.988

>  <E_stb>
0.739899

>  <E_str>
6.74717

>  <E_strain>
0.00726375

>  <E_tor>
15.934

>  <E_vdw>
52.0269

>  <E_rele>
0

>  <E_rnb>
1.13687e-013

>  <E_rsol>
1.13687e-013

>  <E_rvdw>
0

>  <Kier1>
27.5625

>  <Kier2>
12.4531

>  <Kier3>
6.11248

>  <KierA1>
19.481

>  <KierA2>
8.70774

>  <KierA3>
4.24203

>  <KierFlex>
4.71211

>  <logS>
-6.23277

>  <MNDO_dipole>
5.88145

>  <MNDO_E>
-151595

>  <MNDO_Eele>
-1.20004e+006

>  <MNDO_HF>
-40.201

>  <MNDO_HOMO>
-9.38206

>  <MNDO_IP>
9.38206

>  <MNDO_LUMO>
-1.24589

>  <apol>
68.1741

>  <bpol>
34.6859

>  <mr>
13.2332

>  <dipole>
1.06548

>  <dipoleX>
0.562781

>  <dipoleY>
-0.692475

>  <dipoleZ>
0.582246

>  <pmi>
14708.9

>  <pmiX>
10485.2

>  <pmiY>
2352.23

>  <pmiZ>
1871.49

>  <rgyr>
5.38881

>  <a_acc>
6

>  <a_acid>
0

>  <a_base>
0

>  <a_don>
2

>  <a_hyd>
21

>  <vsa_acc>
73.1098

>  <vsa_acid>
0

>  <vsa_base>
0

>  <vsa_don>
11.3652

>  <vsa_hyd>
290.656

>  <vsa_other>
60.4737

>  <vsa_pol>
84.4749

>  <PM3_dipole>
4.36065

>  <PM3_E>
-136231

>  <PM3_Eele>
-1.17732e+006

>  <PM3_HF>
-32.1188

>  <PM3_HOMO>
-9.2971

>  <PM3_IP>
9.2971

>  <PM3_LUMO>
-1.53023

>  <SlogP>
2.5781

>  <SlogP_VSA0>
0

>  <SlogP_VSA1>
79.0494

>  <SlogP_VSA2>
49.7688

>  <SlogP_VSA3>
73.7583

>  <SlogP_VSA4>
81.1434

>  <SlogP_VSA5>
0

>  <SlogP_VSA6>
0

>  <SlogP_VSA7>
160.821

>  <SlogP_VSA8>
0

>  <SlogP_VSA9>
46.7385

>  <SMR>
12.9375

>  <SMR_VSA0>
95.4489

>  <SMR_VSA1>
54.5348

>  <SMR_VSA2>
25.9065

>  <SMR_VSA3>
9.55672

>  <SMR_VSA4>
23.2286

>  <SMR_VSA5>
156.104

>  <SMR_VSA6>
95.2223

>  <SMR_VSA7>
31.2777

>  <ASA>
748.329

>  <ASA+>
311.437

>  <ASA->
332.624

>  <ASA_H>
453.867

>  <ASA_P>
294.462

>  <CASA+>
2064.52

>  <CASA->
2205.29

>  <DASA>
21.1866

>  <DCASA>
140.779

>  <FASA+>
0.416177

>  <FASA->
0.444489

>  <FASA_H>
0.606507

>  <FASA_P>
0.393493

>  <FCASA+>
2.75884

>  <FCASA->
2.94696

>  <VSA>
474.314

>  <TPSA>
128.36

>  <density>
0.835678

>  <vdw_area>
453.852

>  <vdw_vol>
606.116

>  <vsurf_A>
4.51584

>  <vsurf_CP>
0.0583832

>  <vsurf_CW1>
2.71336

>  <vsurf_CW2>
2.32159

>  <vsurf_CW3>
1.69074

>  <vsurf_CW4>
0.911484

>  <vsurf_CW5>
0.471464

>  <vsurf_CW6>
0.21826

>  <vsurf_CW7>
0.0556715

>  <vsurf_CW8>
0.0128211

>  <vsurf_D1>
967.875

>  <vsurf_D2>
583.75

>  <vsurf_D3>
424.5

>  <vsurf_D4>
346.125

>  <vsurf_D5>
290.25

>  <vsurf_D6>
235.625

>  <vsurf_D7>
149.5

>  <vsurf_D8>
96.625

>  <vsurf_DD12>
0.5

>  <vsurf_DD13>
1.11803

>  <vsurf_DD23>
0.707107

>  <vsurf_DW12>
0.5

>  <vsurf_DW13>
0.866025

>  <vsurf_DW23>
0.707107

>  <vsurf_EDmin1>
-2.70151

>  <vsurf_EDmin2>
-2.69585

>  <vsurf_EDmin3>
-2.69459

>  <vsurf_EWmin1>
-6.78153

>  <vsurf_EWmin2>
-6.72323

>  <vsurf_EWmin3>
-6.68815

>  <vsurf_G>
1.40882

>  <vsurf_HB1>
498.75

>  <vsurf_HB2>
603.75

>  <vsurf_HB3>
534.75

>  <vsurf_HB4>
246.25

>  <vsurf_HB5>
105.875

>  <vsurf_HB6>
41.875

>  <vsurf_HB7>
11.75

>  <vsurf_HB8>
2.25

>  <vsurf_HL1>
0.272968

>  <vsurf_HL2>
0.127122

>  <vsurf_ID1>
1.48304

>  <vsurf_ID2>
1.34196

>  <vsurf_ID3>
1.55725

>  <vsurf_ID4>
1.9275

>  <vsurf_ID5>
2.26502

>  <vsurf_ID6>
2.28004

>  <vsurf_ID7>
0.857113

>  <vsurf_ID8>
0.761671

>  <vsurf_IW1>
0.694077

>  <vsurf_IW2>
1.26526

>  <vsurf_IW3>
1.78627

>  <vsurf_IW4>
2.45192

>  <vsurf_IW5>
3.40349

>  <vsurf_IW6>
4.81874

>  <vsurf_IW7>
7.19775

>  <vsurf_IW8>
8.56796

>  <vsurf_R>
1.46985

>  <vsurf_S>
683.233

>  <vsurf_V>
1004.25

>  <vsurf_W1>
1830.13

>  <vsurf_W2>
1202.88

>  <vsurf_W3>
685

>  <vsurf_W4>
275.5

>  <vsurf_W5>
115.875

>  <vsurf_W6>
44

>  <vsurf_W7>
11.75

>  <vsurf_W8>
2.25

>  <vsurf_Wp1>
1331.38

>  <vsurf_Wp2>
599.125

>  <vsurf_Wp3>
150.25

>  <vsurf_Wp4>
29.25

>  <vsurf_Wp5>
10

>  <vsurf_Wp6>
2.125

>  <vsurf_Wp7>
0

>  <vsurf_Wp8>
0

>  <dens>
1.16141

>  <glob>
0.0813385

>  <std_dim1>
4.95906

>  <std_dim2>
2.02687

>  <std_dim3>
1.41432

>  <vol>
436.125

>  <logP(o/w)>
2.101

$$$$
D12.cdx
  MOE2008           3D

 63 67  0  0  0  0  0  0  0  0999 V2000
   -4.6180   13.0230   -2.3320 C   0  0  0  0  0  0  0  0  0  0  0  0
   -5.4960   13.4510   -2.8090 H   0  0  0  0  0  0  0  0  0  0  0  0
   -4.7390   11.9020   -1.5160 C   0  0  0  0  0  0  0  0  0  0  0  0
   -5.7230   11.4560   -1.3820 H   0  0  0  0  0  0  0  0  0  0  0  0
   -3.6180   11.3490   -0.8750 C   0  0  0  0  0  0  0  0  0  0  0  0
   -2.3640   11.9210   -1.1680 C   0  0  0  0  0  0  0  0  0  0  0  0
   -2.2050   13.0480   -1.9810 C   0  0  0  0  0  0  0  0  0  0  0  0
   -3.3680   13.6050   -2.5560 C   0  0  0  0  0  0  0  0  0  0  0  0
   -1.1050   11.5260   -0.7740 N   0  0  0  0  0  0  0  0  0  0  0  0
   -0.9240   10.7080   -0.2030 H   0  0  0  0  0  0  0  0  0  0  0  0
   -0.1620   12.3830   -1.2680 C   0  0  0  0  0  0  0  0  0  0  0  0
    0.8850   12.2220   -1.0420 H   0  0  0  0  0  0  0  0  0  0  0  0
   -0.8000   13.3520   -2.0240 C   0  0  0  0  0  0  0  0  0  0  0  0
   -0.1300   14.4510   -2.7140 C   0  0  0  0  0  0  0  0  0  0  0  0
    1.3840   14.4740   -2.8150 C   0  0  0  0  0  0  0  0  0  0  0  0
    2.0750   15.2100   -1.8560 N   0  0  0  0  0  0  0  0  0  0  0  0
    3.5360   15.2630   -1.8910 C   0  0  0  0  0  0  0  0  0  0  0  0
    3.9360   14.6270   -2.6860 H   0  0  0  0  0  0  0  0  0  0  0  0
    3.8110   16.2990   -2.1240 H   0  0  0  0  0  0  0  0  0  0  0  0
    4.1400   14.8530   -0.5390 C   0  0  0  0  0  0  0  0  0  0  0  0
    5.2180   15.0260   -0.5710 H   0  0  0  0  0  0  0  0  0  0  0  0
    3.9680   13.7860   -0.3590 H   0  0  0  0  0  0  0  0  0  0  0  0
    3.5070   15.5780    0.5780 N   0  0  0  0  0  0  0  0  0  0  0  0
    2.0400   15.5530    0.5870 C   0  0  0  0  0  0  0  0  0  0  0  0
    1.7470   14.5200    0.8110 H   0  0  0  0  0  0  0  0  0  0  0  0
    1.6360   16.1890    1.3810 H   0  0  0  0  0  0  0  0  0  0  0  0
    1.4570   15.9760   -0.7660 C   0  0  0  0  0  0  0  0  0  0  0  0
    1.6770   17.0330   -0.9580 H   0  0  0  0  0  0  0  0  0  0  0  0
    0.3710   15.8610   -0.7530 H   0  0  0  0  0  0  0  0  0  0  0  0
    4.1770   16.2570    1.5930 C   0  0  0  0  0  0  0  0  0  0  0  0
    5.6440   16.1020    1.7100 C   0  0  0  0  0  0  0  0  0  0  0  0
   -0.7270   15.3970   -3.2170 O   0  0  0  0  0  0  0  0  0  0  0  0
    1.9000   13.8330   -3.7240 O   0  0  0  0  0  0  0  0  0  0  0  0
    3.6260   16.9800    2.4190 O   0  0  0  0  0  0  0  0  0  0  0  0
   -3.3150   14.6800   -3.3550 F   0  0  0  0  0  0  0  0  0  0  0  0
    6.2040   14.8420    1.9490 C   0  0  0  0  0  0  0  0  0  0  0  0
    5.5720   13.9620    2.0340 H   0  0  0  0  0  0  0  0  0  0  0  0
    7.5860   14.7210    2.0840 C   0  0  0  0  0  0  0  0  0  0  0  0
    8.0320   13.7450    2.2640 H   0  0  0  0  0  0  0  0  0  0  0  0
    8.3990   15.8530    1.9990 C   0  0  0  0  0  0  0  0  0  0  0  0
    9.4760   15.7560    2.1090 H   0  0  0  0  0  0  0  0  0  0  0  0
    7.8330   17.1120    1.7860 C   0  0  0  0  0  0  0  0  0  0  0  0
    8.4690   17.9920    1.7340 H   0  0  0  0  0  0  0  0  0  0  0  0
    6.4510   17.2410    1.6470 C   0  0  0  0  0  0  0  0  0  0  0  0
    6.0070   18.2220    1.4920 H   0  0  0  0  0  0  0  0  0  0  0  0
   -3.7450   10.1340   -0.0350 C   0  0  0  0  0  0  0  0  0  0  0  0
   -4.7590    9.9660    0.8830 N   0  0  0  0  0  0  0  0  0  0  0  0
   -4.8980    8.9960    1.1450 H   0  0  0  0  0  0  0  0  0  0  0  0
   -2.9220    9.2360   -0.2170 O   0  0  0  0  0  0  0  0  0  0  0  0
   -5.5430   10.9330    1.4880 C   0  0  0  0  0  0  0  0  0  0  0  0
   -5.4450   12.3080    1.5660 C   0  0  0  0  0  0  0  0  0  0  0  0
   -4.6800   12.9460    1.1490 H   0  0  0  0  0  0  0  0  0  0  0  0
   -6.5460   12.7200    2.3370 C   0  0  0  0  0  0  0  0  0  0  0  0
   -6.8330   13.7230    2.6240 H   0  0  0  0  0  0  0  0  0  0  0  0
   -7.2900   11.6950    2.7470 N   0  0  0  0  0  0  0  0  0  0  0  0
   -6.6540   10.6180    2.2450 N   0  0  0  0  0  0  0  0  0  0  0  0
   -7.1940    9.3020    2.5350 C   0  0  0  0  0  0  0  0  0  0  0  0
   -6.3550    8.6250    2.7250 H   0  0  0  0  0  0  0  0  0  0  0  0
   -7.7680    9.3740    3.4660 H   0  0  0  0  0  0  0  0  0  0  0  0
   -8.0740    8.7810    1.4130 C   0  0  0  0  0  0  0  0  0  0  0  0
   -7.5120    8.6850    0.4780 H   0  0  0  0  0  0  0  0  0  0  0  0
   -8.9160    9.4550    1.2280 H   0  0  0  0  0  0  0  0  0  0  0  0
   -8.4750    7.7960    1.6720 H   0  0  0  0  0  0  0  0  0  0  0  0
  1  2  1  0  0  0  0
  1  3  1  0  0  0  0
  1  8  2  0  0  0  0
  3  4  1  0  0  0  0
  3  5  2  0  0  0  0
  5  6  1  0  0  0  0
  5 46  1  0  0  0  0
  6  7  2  0  0  0  0
  6  9  1  0  0  0  0
  7  8  1  0  0  0  0
  7 13  1  0  0  0  0
  8 35  1  0  0  0  0
  9 10  1  0  0  0  0
  9 11  1  0  0  0  0
 11 12  1  0  0  0  0
 11 13  2  0  0  0  0
 13 14  1  0  0  0  0
 14 15  1  0  0  0  0
 14 32  2  0  0  0  0
 15 16  1  0  0  0  0
 15 33  2  0  0  0  0
 16 17  1  0  0  0  0
 16 27  1  0  0  0  0
 17 18  1  0  0  0  0
 17 19  1  0  0  0  0
 17 20  1  0  0  0  0
 20 21  1  0  0  0  0
 20 22  1  0  0  0  0
 20 23  1  0  0  0  0
 23 24  1  0  0  0  0
 23 30  1  0  0  0  0
 24 25  1  0  0  0  0
 24 26  1  0  0  0  0
 24 27  1  0  0  0  0
 27 28  1  0  0  0  0
 27 29  1  0  0  0  0
 30 31  1  0  0  0  0
 30 34  2  0  0  0  0
 31 36  1  0  0  0  0
 31 44  2  0  0  0  0
 36 37  1  0  0  0  0
 36 38  2  0  0  0  0
 38 39  1  0  0  0  0
 38 40  1  0  0  0  0
 40 41  1  0  0  0  0
 40 42  2  0  0  0  0
 42 43  1  0  0  0  0
 42 44  1  0  0  0  0
 44 45  1  0  0  0  0
 46 47  1  0  0  0  0
 46 49  2  0  0  0  0
 47 48  1  0  0  0  0
 47 50  1  0  0  0  0
 50 51  2  0  0  0  0
 50 56  1  0  0  0  0
 51 52  1  0  0  0  0
 51 53  1  0  0  0  0
 53 54  1  0  0  0  0
 53 55  2  0  0  0  0
 55 56  1  0  0  0  0
 56 57  1  0  0  0  0
 57 58  1  0  0  0  0
 57 59  1  0  0  0  0
 57 60  1  0  0  0  0
 60 61  1  0  0  0  0
 60 62  1  0  0  0  0
 60 63  1  0  0  0  0
M  END
>  <Activity>
8.5128

>  <AM1_dipole>
5.36071

>  <AM1_E>
-156929

>  <AM1_Eele>
-1.3299e+006

>  <AM1_HF>
3.07379

>  <AM1_HOMO>
-9.05973

>  <AM1_IP>
9.05973

>  <AM1_LUMO>
-1.03341

>  <diameter>
20

>  <petitjean>
0.5

>  <petitjeanSC>
1

>  <radius>
10

>  <VDistEq>
4.04129

>  <VDistMa>
10.18

>  <weinerPath>
5188

>  <weinerPol>
65

>  <BCUT_PEOE_0>
-2.71188

>  <BCUT_PEOE_1>
-0.615508

>  <BCUT_PEOE_2>
0.627461

>  <BCUT_PEOE_3>
2.65031

>  <BCUT_SLOGP_0>
-2.86001

>  <BCUT_SLOGP_1>
-0.512105

>  <BCUT_SLOGP_2>
0.748221

>  <BCUT_SLOGP_3>
2.50416

>  <BCUT_SMR_0>
-2.43203

>  <BCUT_SMR_1>
-0.417343

>  <BCUT_SMR_2>
0.805792

>  <BCUT_SMR_3>
2.92027

>  <GCUT_PEOE_0>
-0.857947

>  <GCUT_PEOE_1>
-0.417133

>  <GCUT_PEOE_2>
0.0739925

>  <GCUT_PEOE_3>
2.74346

>  <GCUT_SLOGP_0>
-0.99372

>  <GCUT_SLOGP_1>
-0.314332

>  <GCUT_SLOGP_2>
0.170687

>  <GCUT_SLOGP_3>
2.74007

>  <GCUT_SMR_0>
-0.512821

>  <GCUT_SMR_1>
-0.214562

>  <GCUT_SMR_2>
0.206359

>  <GCUT_SMR_3>
3.0191

>  <a_aro>
20

>  <a_count>
63

>  <a_IC>
108.58

>  <a_ICM>
1.7235

>  <a_nH>
25

>  <b_1rotN>
8

>  <b_1rotR>
0.190476

>  <b_ar>
21

>  <b_count>
67

>  <b_double>
4

>  <b_rotN>
9

>  <b_rotR>
0.214286

>  <b_single>
42

>  <b_triple>
0

>  <chi0v>
20.6088

>  <chi0v_C>
15.809

>  <chi1v>
12.1935

>  <chi1v_C>
7.43916

>  <chiral>
0

>  <chiral_u>
0

>  <nmol>
1

>  <reactive>
0

>  <rings>
5

>  <Weight>
516.533

>  <a_heavy>
38

>  <a_nB>
0

>  <a_nBr>
0

>  <a_nC>
27

>  <a_nCl>
0

>  <a_nF>
1

>  <a_nI>
0

>  <a_nN>
6

>  <a_nO>
4

>  <a_nP>
0

>  <a_nS>
0

>  <b_heavy>
42

>  <chi0>
26.8108

>  <chi0_C>
17.9575

>  <chi1>
18.3842

>  <chi1_C>
9.82326

>  <FCharge>
0

>  <VAdjEq>
0.320144

>  <VAdjMa>
6.39232

>  <zagreb>
204

>  <balabanJ>
1.15389

>  <PEOE_PC+>
3.44246

>  <PEOE_PC->
-3.44246

>  <PEOE_RPC+>
0.0857236

>  <PEOE_RPC->
0.104368

>  <PEOE_VSA+0>
112.176

>  <PEOE_VSA+1>
113.17

>  <PEOE_VSA+2>
20.2114

>  <PEOE_VSA+3>
17.238

>  <PEOE_VSA+4>
0

>  <PEOE_VSA+5>
47.3071

>  <PEOE_VSA+6>
0

>  <PEOE_VSA-0>
67.7673

>  <PEOE_VSA-1>
36.7647

>  <PEOE_VSA-2>
0

>  <PEOE_VSA-3>
9.42104

>  <PEOE_VSA-4>
11.9086

>  <PEOE_VSA-5>
54.2677

>  <PEOE_VSA-6>
0.273782

>  <PEOE_VSA_FHYD>
0.768082

>  <PEOE_VSA_FNEG>
0.36779

>  <PEOE_VSA_FPNEG>
0.135473

>  <PEOE_VSA_FPOL>
0.231918

>  <PEOE_VSA_FPOS>
0.63221

>  <PEOE_VSA_FPPOS>
0.0964456

>  <PEOE_VSA_HYD>
376.748

>  <PEOE_VSA_NEG>
180.403

>  <PEOE_VSA_PNEG>
66.4501

>  <PEOE_VSA_POL>
113.757

>  <PEOE_VSA_POS>
310.102

>  <PEOE_VSA_PPOS>
47.3071

>  <PC+>
6.818

>  <PC->
-6.819

>  <Q_PC+>
6.818

>  <Q_PC->
-6.819

>  <Q_RPC+>
0.0962159

>  <Q_RPC->
0.103681

>  <Q_VSA_FHYD>
0.569672

>  <Q_VSA_FNEG>
0.42939

>  <Q_VSA_FPNEG>
0.164262

>  <Q_VSA_FPOL>
0.430328

>  <Q_VSA_FPOS>
0.57061

>  <Q_VSA_FPPOS>
0.266066

>  <Q_VSA_HYD>
279.427

>  <Q_VSA_NEG>
210.618

>  <Q_VSA_PNEG>
80.5715

>  <Q_VSA_POL>
211.078

>  <Q_VSA_POS>
279.888

>  <Q_VSA_PPOS>
130.507

>  <RPC+>
0.0962159

>  <RPC->
0.103681

>  <lip_acc>
10

>  <lip_don>
2

>  <lip_druglike>
1

>  <lip_violation>
1

>  <opr_brigid>
27

>  <opr_leadlike>
0

>  <opr_nring>
5

>  <opr_nrot>
8

>  <opr_violation>
3

>  <E>
122.971

>  <E_ang>
18.5044

>  <E_ele>
33.1973

>  <E_nb>
88.1792

>  <E_oop>
0.194539

>  <E_sol>
-27.2259

>  <E_stb>
1.07432

>  <E_str>
7.03895

>  <E_strain>
0.00725398

>  <E_tor>
7.97986

>  <E_vdw>
54.9818

>  <E_rele>
0

>  <E_rnb>
0

>  <E_rsol>
0

>  <E_rvdw>
0

>  <Kier1>
29.4909

>  <Kier2>
13.32

>  <Kier3>
6.42857

>  <KierA1>
20.0797

>  <KierA2>
8.96725

>  <KierA3>
4.29368

>  <KierFlex>
4.73841

>  <logS>
-5.26308

>  <MNDO_dipole>
4.82461

>  <MNDO_E>
-157132

>  <MNDO_Eele>
-1.31837e+006

>  <MNDO_HF>
-46.5816

>  <MNDO_HOMO>
-9.20805

>  <MNDO_IP>
9.20805

>  <MNDO_LUMO>
-1.06856

>  <apol>
74.5548

>  <bpol>
39.6252

>  <mr>
13.9018

>  <dipole>
1.36099

>  <dipoleX>
0.419641

>  <dipoleY>
-1.10479

>  <dipoleZ>
0.675005

>  <pmi>
16379.9

>  <pmiX>
11343.5

>  <pmiY>
2962.36

>  <pmiZ>
2073.97

>  <rgyr>
5.63127

>  <a_acc>
5

>  <a_acid>
0

>  <a_base>
0

>  <a_don>
2

>  <a_hyd>
23

>  <vsa_acc>
63.6887

>  <vsa_acid>
0

>  <vsa_base>
0

>  <vsa_don>
11.3652

>  <vsa_hyd>
334.436

>  <vsa_other>
58.4977

>  <vsa_pol>
75.0539

>  <PM3_dipole>
5.69574

>  <PM3_E>
-142295

>  <PM3_Eele>
-1.30848e+006

>  <PM3_HF>
-63.1865

>  <PM3_HOMO>
-9.10519

>  <PM3_IP>
9.10519

>  <PM3_LUMO>
-1.07846

>  <SlogP>
3.2094

>  <SlogP_VSA0>
0

>  <SlogP_VSA1>
64.1629

>  <SlogP_VSA2>
49.7688

>  <SlogP_VSA3>
73.7583

>  <SlogP_VSA4>
81.1434

>  <SlogP_VSA5>
0

>  <SlogP_VSA6>
0

>  <SlogP_VSA7>
180.291

>  <SlogP_VSA8>
0

>  <SlogP_VSA9>
69.0536

>  <SMR>
13.7572

>  <SMR_VSA0>
95.4489

>  <SMR_VSA1>
39.6483

>  <SMR_VSA2>
25.9065

>  <SMR_VSA3>
9.55672

>  <SMR_VSA4>
25.0558

>  <SMR_VSA5>
194.014

>  <SMR_VSA6>
95.2223

>  <SMR_VSA7>
33.326

>  <ASA>
798.979

>  <ASA+>
302.973

>  <ASA->
287.605

>  <ASA_H>
576.97

>  <ASA_P>
222.009

>  <CASA+>
2065.67

>  <CASA->
1961.18

>  <DASA>
15.368

>  <DCASA>
104.491

>  <FASA+>
0.3792

>  <FASA->
0.359966

>  <FASA_H>
0.722134

>  <FASA_P>
0.277866

>  <FCASA+>
2.58539

>  <FCASA->
2.4546

>  <VSA>
514.9

>  <TPSA>
120.4

>  <density>
0.783136

>  <vdw_area>
490.506

>  <vdw_vol>
659.57

>  <vsurf_A>
2.27205

>  <vsurf_CP>
0.0700941

>  <vsurf_CW1>
2.61189

>  <vsurf_CW2>
2.12825

>  <vsurf_CW3>
1.45084

>  <vsurf_CW4>
0.737553

>  <vsurf_CW5>
0.357788

>  <vsurf_CW6>
0.14407

>  <vsurf_CW7>
0.0248146

>  <vsurf_CW8>
0.00561158

>  <vsurf_D1>
1029.88

>  <vsurf_D2>
621.75

>  <vsurf_D3>
470.125

>  <vsurf_D4>
399.375

>  <vsurf_D5>
338.25

>  <vsurf_D6>
264.375

>  <vsurf_D7>
163.125

>  <vsurf_D8>
100.375

>  <vsurf_DD12>
0.707107

>  <vsurf_DD13>
0.5

>  <vsurf_DD23>
0.866025

>  <vsurf_DW12>
0.707107

>  <vsurf_DW13>
0.707107

>  <vsurf_DW23>
0.707107

>  <vsurf_EDmin1>
-2.95306

>  <vsurf_EDmin2>
-2.92271

>  <vsurf_EDmin3>
-2.90558

>  <vsurf_EWmin1>
-6.68434

>  <vsurf_EWmin2>
-6.63757

>  <vsurf_EWmin3>
-6.62837

>  <vsurf_G>
1.43709

>  <vsurf_HB1>
450.25

>  <vsurf_HB2>
543.25

>  <vsurf_HB3>
466.625

>  <vsurf_HB4>
204.5

>  <vsurf_HB5>
79

>  <vsurf_HB6>
27.75

>  <vsurf_HB7>
5.5

>  <vsurf_HB8>
1.125

>  <vsurf_HL1>
0.186121

>  <vsurf_HL2>
0.0738654

>  <vsurf_ID1>
1.05519

>  <vsurf_ID2>
0.991977

>  <vsurf_ID3>
1.06442

>  <vsurf_ID4>
1.24679

>  <vsurf_ID5>
1.37717

>  <vsurf_ID6>
1.64507

>  <vsurf_ID7>
0.972065

>  <vsurf_ID8>
0.782377

>  <vsurf_IW1>
0.339278

>  <vsurf_IW2>
0.526746

>  <vsurf_IW3>
0.860726

>  <vsurf_IW4>
1.2553

>  <vsurf_IW5>
1.70101

>  <vsurf_IW6>
2.8543

>  <vsurf_IW7>
5.19117

>  <vsurf_IW8>
7.6575

>  <vsurf_R>
1.4751

>  <vsurf_S>
730.375

>  <vsurf_V>
1077.38

>  <vsurf_W1>
1775.38

>  <vsurf_W2>
1111

>  <vsurf_W3>
603.125

>  <vsurf_W4>
228.25

>  <vsurf_W5>
87.5

>  <vsurf_W6>
29.5

>  <vsurf_W7>
5.625

>  <vsurf_W8>
1.125

>  <vsurf_Wp1>
1325.13

>  <vsurf_Wp2>
567.75

>  <vsurf_Wp3>
136.5

>  <vsurf_Wp4>
23.75

>  <vsurf_Wp5>
8.5

>  <vsurf_Wp6>
1.75

>  <vsurf_Wp7>
0.125

>  <vsurf_Wp8>
0

>  <dens>
1.09609

>  <glob>
0.0572605

>  <std_dim1>
5.62017

>  <std_dim2>
1.95288

>  <std_dim3>
1.34486

>  <vol>
471.25

>  <logP(o/w)>
1.908

$$$$
D12.cdx
  MOE2008           3D

 59 63  0  0  0  0  0  0  0  0999 V2000
   -3.8720    7.8340   -2.8660 C   0  0  0  0  0  0  0  0  0  0  0  0
   -4.4830    7.9640   -3.7550 H   0  0  0  0  0  0  0  0  0  0  0  0
   -4.4270    7.3080   -1.7030 C   0  0  0  0  0  0  0  0  0  0  0  0
   -5.4760    7.0200   -1.7080 H   0  0  0  0  0  0  0  0  0  0  0  0
   -3.6560    7.1570   -0.5380 C   0  0  0  0  0  0  0  0  0  0  0  0
   -2.2880    7.4780   -0.6260 C   0  0  0  0  0  0  0  0  0  0  0  0
   -1.6990    8.0130   -1.7760 C   0  0  0  0  0  0  0  0  0  0  0  0
   -2.5240    8.1990   -2.9060 C   0  0  0  0  0  0  0  0  0  0  0  0
   -1.2940    7.3420    0.3160 N   0  0  0  0  0  0  0  0  0  0  0  0
   -1.4380    6.9430    1.2370 H   0  0  0  0  0  0  0  0  0  0  0  0
   -0.1090    7.8130   -0.1760 C   0  0  0  0  0  0  0  0  0  0  0  0
    0.7790    7.7920    0.4430 H   0  0  0  0  0  0  0  0  0  0  0  0
   -0.3130    8.2470   -1.4750 C   0  0  0  0  0  0  0  0  0  0  0  0
    0.7160    8.8350   -2.3270 C   0  0  0  0  0  0  0  0  0  0  0  0
    2.1490    8.9240   -1.8310 C   0  0  0  0  0  0  0  0  0  0  0  0
    2.5470   10.1350   -1.2670 N   0  0  0  0  0  0  0  0  0  0  0  0
    3.9240   10.2770   -0.7930 C   0  0  0  0  0  0  0  0  0  0  0  0
    3.9450    9.8770    0.2280 H   0  0  0  0  0  0  0  0  0  0  0  0
    4.5930    9.6590   -1.4020 H   0  0  0  0  0  0  0  0  0  0  0  0
    4.3970   11.7330   -0.7950 C   0  0  0  0  0  0  0  0  0  0  0  0
    4.4280   12.1090   -1.8250 H   0  0  0  0  0  0  0  0  0  0  0  0
    5.4070   11.7940   -0.3780 H   0  0  0  0  0  0  0  0  0  0  0  0
    3.4890   12.6170   -0.0470 N   0  0  0  0  0  0  0  0  0  0  0  0
    2.0890   12.1990    0.0480 C   0  0  0  0  0  0  0  0  0  0  0  0
    1.9860   11.6600    0.9970 H   0  0  0  0  0  0  0  0  0  0  0  0
    1.4410   13.0810    0.0980 H   0  0  0  0  0  0  0  0  0  0  0  0
    1.6640   11.2980   -1.1150 C   0  0  0  0  0  0  0  0  0  0  0  0
    1.7120   11.8530   -2.0590 H   0  0  0  0  0  0  0  0  0  0  0  0
    0.6290   10.9770   -0.9720 H   0  0  0  0  0  0  0  0  0  0  0  0
    3.8680   13.7950    0.5960 C   0  0  0  0  0  0  0  0  0  0  0  0
    5.2330   14.3220    0.3760 C   0  0  0  0  0  0  0  0  0  0  0  0
    0.4960    9.3030   -3.4400 O   0  0  0  0  0  0  0  0  0  0  0  0
    2.8570    7.9300   -1.9500 O   0  0  0  0  0  0  0  0  0  0  0  0
    3.1330   14.4290    1.3490 O   0  0  0  0  0  0  0  0  0  0  0  0
   -2.0480    8.7050   -4.0520 F   0  0  0  0  0  0  0  0  0  0  0  0
    5.6670   14.6600   -0.9110 C   0  0  0  0  0  0  0  0  0  0  0  0
    5.0120   14.5360   -1.7680 H   0  0  0  0  0  0  0  0  0  0  0  0
    6.9510   15.1740   -1.0900 C   0  0  0  0  0  0  0  0  0  0  0  0
    7.2980   15.4340   -2.0870 H   0  0  0  0  0  0  0  0  0  0  0  0
    7.7880   15.3640    0.0110 C   0  0  0  0  0  0  0  0  0  0  0  0
    8.7870   15.7680   -0.1310 H   0  0  0  0  0  0  0  0  0  0  0  0
    7.3420   15.0490    1.2960 C   0  0  0  0  0  0  0  0  0  0  0  0
    7.9930   15.2120    2.1520 H   0  0  0  0  0  0  0  0  0  0  0  0
    6.0600   14.5330    1.4830 C   0  0  0  0  0  0  0  0  0  0  0  0
    5.7090   14.2980    2.4850 H   0  0  0  0  0  0  0  0  0  0  0  0
   -4.2470    6.5810    0.6950 C   0  0  0  0  0  0  0  0  0  0  0  0
   -5.4510    7.0080    1.2090 N   0  0  0  0  0  0  0  0  0  0  0  0
   -5.8710    6.3870    1.8900 H   0  0  0  0  0  0  0  0  0  0  0  0
   -3.6130    5.6850    1.2520 O   0  0  0  0  0  0  0  0  0  0  0  0
   -6.1080    8.1830    0.9380 C   0  0  0  0  0  0  0  0  0  0  0  0
   -5.5100    9.1690    0.2170 O   0  0  0  0  0  0  0  0  0  0  0  0
   -6.3620   10.2540    0.1120 N   0  0  0  0  0  0  0  0  0  0  0  0
   -7.4600    9.9160    0.7990 C   0  0  0  0  0  0  0  0  0  0  0  0
   -7.3420    8.6190    1.3500 C   0  0  0  0  0  0  0  0  0  0  0  0
   -8.0590    8.0840    1.9540 H   0  0  0  0  0  0  0  0  0  0  0  0
   -8.5900   10.8620    0.9060 C   0  0  0  0  0  0  0  0  0  0  0  0
   -9.4150   10.4300    1.4830 H   0  0  0  0  0  0  0  0  0  0  0  0
   -8.9720   11.1220   -0.0860 H   0  0  0  0  0  0  0  0  0  0  0  0
   -8.2750   11.7830    1.4070 H   0  0  0  0  0  0  0  0  0  0  0  0
  1  2  1  0  0  0  0
  1  3  1  0  0  0  0
  1  8  2  0  0  0  0
  3  4  1  0  0  0  0
  3  5  2  0  0  0  0
  5  6  1  0  0  0  0
  5 46  1  0  0  0  0
  6  7  2  0  0  0  0
  6  9  1  0  0  0  0
  7  8  1  0  0  0  0
  7 13  1  0  0  0  0
  8 35  1  0  0  0  0
  9 10  1  0  0  0  0
  9 11  1  0  0  0  0
 11 12  1  0  0  0  0
 11 13  2  0  0  0  0
 13 14  1  0  0  0  0
 14 15  1  0  0  0  0
 14 32  2  0  0  0  0
 15 16  1  0  0  0  0
 15 33  2  0  0  0  0
 16 17  1  0  0  0  0
 16 27  1  0  0  0  0
 17 18  1  0  0  0  0
 17 19  1  0  0  0  0
 17 20  1  0  0  0  0
 20 21  1  0  0  0  0
 20 22  1  0  0  0  0
 20 23  1  0  0  0  0
 23 24  1  0  0  0  0
 23 30  1  0  0  0  0
 24 25  1  0  0  0  0
 24 26  1  0  0  0  0
 24 27  1  0  0  0  0
 27 28  1  0  0  0  0
 27 29  1  0  0  0  0
 30 31  1  0  0  0  0
 30 34  2  0  0  0  0
 31 36  1  0  0  0  0
 31 44  2  0  0  0  0
 36 37  1  0  0  0  0
 36 38  2  0  0  0  0
 38 39  1  0  0  0  0
 38 40  1  0  0  0  0
 40 41  1  0  0  0  0
 40 42  2  0  0  0  0
 42 43  1  0  0  0  0
 42 44  1  0  0  0  0
 44 45  1  0  0  0  0
 46 47  1  0  0  0  0
 46 49  2  0  0  0  0
 47 48  1  0  0  0  0
 47 50  1  0  0  0  0
 50 51  1  0  0  0  0
 50 54  2  0  0  0  0
 51 52  1  0  0  0  0
 52 53  2  0  0  0  0
 53 54  1  0  0  0  0
 53 56  1  0  0  0  0
 54 55  1  0  0  0  0
 56 57  1  0  0  0  0
 56 58  1  0  0  0  0
 56 59  1  0  0  0  0
M  END
>  <Activity>
9.0268

>  <AM1_dipole>
4.73559

>  <AM1_E>
-155623

>  <AM1_Eele>
-1.26824e+006

>  <AM1_HF>
-23.8362

>  <AM1_HOMO>
-9.08762

>  <AM1_IP>
9.08762

>  <AM1_LUMO>
-1.04272

>  <diameter>
20

>  <petitjean>
0.5

>  <petitjeanSC>
1

>  <radius>
10

>  <VDistEq>
4.02254

>  <VDistMa>
10.1012

>  <weinerPath>
4837

>  <weinerPol>
62

>  <BCUT_PEOE_0>
-2.71188

>  <BCUT_PEOE_1>
-0.626999

>  <BCUT_PEOE_2>
0.661892

>  <BCUT_PEOE_3>
2.65031

>  <BCUT_SLOGP_0>
-2.86001

>  <BCUT_SLOGP_1>
-0.524883

>  <BCUT_SLOGP_2>
0.746813

>  <BCUT_SLOGP_3>
2.50337

>  <BCUT_SMR_0>
-2.43203

>  <BCUT_SMR_1>
-0.424676

>  <BCUT_SMR_2>
0.825915

>  <BCUT_SMR_3>
2.92027

>  <GCUT_PEOE_0>
-0.857769

>  <GCUT_PEOE_1>
-0.430508

>  <GCUT_PEOE_2>
0.0770023

>  <GCUT_PEOE_3>
2.72166

>  <GCUT_SLOGP_0>
-0.993191

>  <GCUT_SLOGP_1>
-0.332334

>  <GCUT_SLOGP_2>
0.173408

>  <GCUT_SLOGP_3>
2.71069

>  <GCUT_SMR_0>
-0.508916

>  <GCUT_SMR_1>
-0.215323

>  <GCUT_SMR_2>
0.218333

>  <GCUT_SMR_3>
2.99462

>  <a_aro>
20

>  <a_count>
59

>  <a_IC>
103.538

>  <a_ICM>
1.75488

>  <a_nH>
22

>  <b_1rotN>
7

>  <b_1rotR>
0.170732

>  <b_ar>
21

>  <b_count>
63

>  <b_double>
4

>  <b_rotN>
8

>  <b_rotR>
0.195122

>  <b_single>
38

>  <b_triple>
0

>  <chi0v>
19.7854

>  <chi0v_C>
15.0246

>  <chi1v>
11.554

>  <chi1v_C>
7.18739

>  <chiral>
0

>  <chiral_u>
0

>  <nmol>
1

>  <reactive>
0

>  <rings>
5

>  <Weight>
503.49

>  <a_heavy>
37

>  <a_nB>
0

>  <a_nBr>
0

>  <a_nC>
26

>  <a_nCl>
0

>  <a_nF>
1

>  <a_nI>
0

>  <a_nN>
5

>  <a_nO>
5

>  <a_nP>
0

>  <a_nS>
0

>  <b_heavy>
41

>  <chi0>
26.1037

>  <chi0_C>
17.1206

>  <chi1>
17.8294

>  <chi1_C>
9.60176

>  <FCharge>
0

>  <VAdjEq>
0.327039

>  <VAdjMa>
6.35755

>  <zagreb>
200

>  <balabanJ>
1.14787

>  <PEOE_PC+>
3.39101

>  <PEOE_PC->
-3.39101

>  <PEOE_RPC+>
0.0870243

>  <PEOE_RPC->
0.105952

>  <PEOE_VSA+0>
98.9834

>  <PEOE_VSA+1>
90.3277

>  <PEOE_VSA+2>
9.02085

>  <PEOE_VSA+3>
17.238

>  <PEOE_VSA+4>
12.9495

>  <PEOE_VSA+5>
47.3071

>  <PEOE_VSA+6>
0

>  <PEOE_VSA-0>
67.7673

>  <PEOE_VSA-1>
47.65

>  <PEOE_VSA-2>
0

>  <PEOE_VSA-3>
0

>  <PEOE_VSA-4>
11.9086

>  <PEOE_VSA-5>
54.4046

>  <PEOE_VSA-6>
6.03925

>  <PEOE_VSA_FHYD>
0.713956

>  <PEOE_VSA_FNEG>
0.405028

>  <PEOE_VSA_FPNEG>
0.156068

>  <PEOE_VSA_FPOL>
0.286044

>  <PEOE_VSA_FPOS>
0.594972

>  <PEOE_VSA_FPPOS>
0.129977

>  <PEOE_VSA_HYD>
330.987

>  <PEOE_VSA_NEG>
187.77

>  <PEOE_VSA_PNEG>
72.3525

>  <PEOE_VSA_POL>
132.609

>  <PEOE_VSA_POS>
275.827

>  <PEOE_VSA_PPOS>
60.2566

>  <PC+>
6.452

>  <PC->
-6.453

>  <Q_PC+>
6.452

>  <Q_PC->
-6.453

>  <Q_RPC+>
0.101674

>  <Q_RPC->
0.102278

>  <Q_VSA_FHYD>
0.542059

>  <Q_VSA_FNEG>
0.446065

>  <Q_VSA_FPNEG>
0.176955

>  <Q_VSA_FPOL>
0.457941

>  <Q_VSA_FPOS>
0.553935

>  <Q_VSA_FPPOS>
0.280986

>  <Q_VSA_HYD>
251.297

>  <Q_VSA_NEG>
206.794

>  <Q_VSA_PNEG>
82.0358

>  <Q_VSA_POL>
212.3

>  <Q_VSA_POS>
256.802

>  <Q_VSA_PPOS>
130.264

>  <RPC+>
0.101674

>  <RPC->
0.102278

>  <lip_acc>
10

>  <lip_don>
2

>  <lip_druglike>
1

>  <lip_violation>
1

>  <opr_brigid>
27

>  <opr_leadlike>
0

>  <opr_nring>
5

>  <opr_nrot>
7

>  <opr_violation>
3

>  <E>
111.984

>  <E_ang>
16.1487

>  <E_ele>
23.044

>  <E_nb>
75.8793

>  <E_oop>
0.183854

>  <E_sol>
-21.5357

>  <E_stb>
0.664549

>  <E_str>
6.53576

>  <E_strain>
0.010049

>  <E_tor>
12.5721

>  <E_vdw>
52.8353

>  <E_rele>
0

>  <E_rnb>
5.68434e-014

>  <E_rsol>
5.68434e-014

>  <E_rvdw>
0

>  <Kier1>
28.5259

>  <Kier2>
12.6688

>  <Kier3>
6.34294

>  <KierA1>
19.5134

>  <KierA2>
8.56725

>  <KierA3>
4.25396

>  <KierFlex>
4.51827

>  <logS>
-5.56556

>  <MNDO_dipole>
3.35676

>  <MNDO_E>
-155840

>  <MNDO_Eele>
-1.25712e+006

>  <MNDO_HF>
-78.7888

>  <MNDO_HOMO>
-9.19436

>  <MNDO_IP>
9.19436

>  <MNDO_LUMO>
-1.06987

>  <apol>
70.4964

>  <bpol>
36.2816

>  <mr>
13.2915

>  <dipole>
1.30184

>  <dipoleX>
-0.824084

>  <dipoleY>
-0.112731

>  <dipoleZ>
1.00148

>  <pmi>
15669

>  <pmiX>
10526.9

>  <pmiY>
3983.39

>  <pmiZ>
1158.69

>  <rgyr>
5.5786

>  <a_acc>
5

>  <a_acid>
0

>  <a_base>
0

>  <a_don>
2

>  <a_hyd>
22

>  <vsa_acc>
65.1529

>  <vsa_acid>
0

>  <vsa_base>
0

>  <vsa_don>
11.3652

>  <vsa_hyd>
300.537

>  <vsa_other>
66.159

>  <vsa_pol>
76.5181

>  <PM3_dipole>
4.27425

>  <PM3_E>
-141496

>  <PM3_Eele>
-1.23948e+006

>  <PM3_HF>
-76.7476

>  <PM3_HOMO>
-9.11265

>  <PM3_IP>
9.11265

>  <PM3_LUMO>
-1.04626

>  <SlogP>
3.02302

>  <SlogP_VSA0>
0

>  <SlogP_VSA1>
65.3199

>  <SlogP_VSA2>
49.7688

>  <SlogP_VSA3>
73.7583

>  <SlogP_VSA4>
83.9001

>  <SlogP_VSA5>
9.73412

>  <SlogP_VSA6>
0

>  <SlogP_VSA7>
163.077

>  <SlogP_VSA8>
0

>  <SlogP_VSA9>
53.3061

>  <SMR>
13.0706

>  <SMR_VSA0>
105.183

>  <SMR_VSA1>
40.8053

>  <SMR_VSA2>
25.9065

>  <SMR_VSA3>
12.3135

>  <SMR_VSA4>
27.7478

>  <SMR_VSA5>
158.36

>  <SMR_VSA6>
95.2223

>  <SMR_VSA7>
33.326

>  <ASA>
776.592

>  <ASA+>
307.529

>  <ASA->
302.312

>  <ASA_H>
540.059

>  <ASA_P>
236.533

>  <CASA+>
1984.18

>  <CASA->
1950.82

>  <DASA>
5.21672

>  <DCASA>
33.356

>  <FASA+>
0.395998

>  <FASA->
0.389281

>  <FASA_H>
0.695421

>  <FASA_P>
0.304579

>  <FCASA+>
2.55498

>  <FCASA->
2.51203

>  <VSA>
492.43

>  <TPSA>
128.61

>  <density>
0.80227

>  <vdw_area>
463.596

>  <vdw_vol>
627.581

>  <vsurf_A>
2.73026

>  <vsurf_CP>
0.0641393

>  <vsurf_CW1>
2.62951

>  <vsurf_CW2>
2.13304

>  <vsurf_CW3>
1.47079

>  <vsurf_CW4>
0.798512

>  <vsurf_CW5>
0.398298

>  <vsurf_CW6>
0.148814

>  <vsurf_CW7>
0.0202413

>  <vsurf_CW8>
0.00298712

>  <vsurf_D1>
988.375

>  <vsurf_D2>
593.25

>  <vsurf_D3>
449.875

>  <vsurf_D4>
379.25

>  <vsurf_D5>
325.25

>  <vsurf_D6>
251.375

>  <vsurf_D7>
153.75

>  <vsurf_D8>
88.625

>  <vsurf_DD12>
2.95804

>  <vsurf_DD13>
0.5

>  <vsurf_DD23>
3.24037

>  <vsurf_DW12>
0.707107

>  <vsurf_DW13>
0.5

>  <vsurf_DW23>
0.5

>  <vsurf_EDmin1>
-2.72545

>  <vsurf_EDmin2>
-2.69176

>  <vsurf_EDmin3>
-2.68804

>  <vsurf_EWmin1>
-6.43901

>  <vsurf_EWmin2>
-6.4074

>  <vsurf_EWmin3>
-6.3561

>  <vsurf_G>
1.43638

>  <vsurf_HB1>
436.625

>  <vsurf_HB2>
538.25

>  <vsurf_HB3>
467.375

>  <vsurf_HB4>
215.625

>  <vsurf_HB5>
85.625

>  <vsurf_HB6>
25.75

>  <vsurf_HB7>
4

>  <vsurf_HB8>
0.625

>  <vsurf_HL1>
0.213115

>  <vsurf_HL2>
0.0748187

>  <vsurf_ID1>
1.11452

>  <vsurf_ID2>
1.0437

>  <vsurf_ID3>
1.19542

>  <vsurf_ID4>
1.42297

>  <vsurf_ID5>
1.63394

>  <vsurf_ID6>
1.85917

>  <vsurf_ID7>
0.677628

>  <vsurf_ID8>
0.484681

>  <vsurf_IW1>
0.275525

>  <vsurf_IW2>
0.540491

>  <vsurf_IW3>
0.962554

>  <vsurf_IW4>
1.50022

>  <vsurf_IW5>
1.75877

>  <vsurf_IW6>
2.58058

>  <vsurf_IW7>
6.36681

>  <vsurf_IW8>
8.50167

>  <vsurf_R>
1.45838

>  <vsurf_S>
712.863

>  <vsurf_V>
1039.63

>  <vsurf_W1>
1760.63

>  <vsurf_W2>
1122.5

>  <vsurf_W3>
610.75

>  <vsurf_W4>
244.75

>  <vsurf_W5>
95.875

>  <vsurf_W6>
28.375

>  <vsurf_W7>
4

>  <vsurf_W8>
0.625

>  <vsurf_Wp1>
1324

>  <vsurf_Wp2>
584.25

>  <vsurf_Wp3>
143.375

>  <vsurf_Wp4>
29.125

>  <vsurf_Wp5>
10.25

>  <vsurf_Wp6>
2.625

>  <vsurf_Wp7>
0

>  <vsurf_Wp8>
0

>  <dens>
1.12449

>  <glob>
0.0590228

>  <std_dim1>
5.50277

>  <std_dim2>
2.04623

>  <std_dim3>
1.33688

>  <vol>
447.75

>  <logP(o/w)>
2.022

$$$$
D12.cdx
  MOE2008           3D

 56 60  0  0  0  0  0  0  0  0999 V2000
   -4.6270    6.5780    0.8170 C   0  0  0  0  0  0  0  0  0  0  0  0
   -5.3980    7.3370    0.9180 H   0  0  0  0  0  0  0  0  0  0  0  0
   -4.8610    5.2780    1.2550 C   0  0  0  0  0  0  0  0  0  0  0  0
   -5.8210    5.0420    1.7110 H   0  0  0  0  0  0  0  0  0  0  0  0
   -3.8810    4.2820    1.1080 C   0  0  0  0  0  0  0  0  0  0  0  0
   -2.6370    4.6710    0.5770 C   0  0  0  0  0  0  0  0  0  0  0  0
   -2.3700    5.9670    0.1230 C   0  0  0  0  0  0  0  0  0  0  0  0
   -3.4000    6.9250    0.2440 C   0  0  0  0  0  0  0  0  0  0  0  0
   -1.4910    3.9310    0.3940 N   0  0  0  0  0  0  0  0  0  0  0  0
   -1.3940    2.9600    0.6690 H   0  0  0  0  0  0  0  0  0  0  0  0
   -0.5260    4.6950   -0.2000 C   0  0  0  0  0  0  0  0  0  0  0  0
    0.4380    4.2600   -0.4360 H   0  0  0  0  0  0  0  0  0  0  0  0
   -1.0270    5.9710   -0.3910 C   0  0  0  0  0  0  0  0  0  0  0  0
   -0.2910    7.0730   -1.0020 C   0  0  0  0  0  0  0  0  0  0  0  0
    1.0770    6.8240   -1.6170 C   0  0  0  0  0  0  0  0  0  0  0  0
    2.1840    7.3780   -0.9770 N   0  0  0  0  0  0  0  0  0  0  0  0
    3.5130    7.2270   -1.5780 C   0  0  0  0  0  0  0  0  0  0  0  0
    3.4820    6.5400   -2.4300 H   0  0  0  0  0  0  0  0  0  0  0  0
    3.7990    8.2150   -1.9580 H   0  0  0  0  0  0  0  0  0  0  0  0
    4.5450    6.7420   -0.5550 C   0  0  0  0  0  0  0  0  0  0  0  0
    5.5380    6.7040   -1.0060 H   0  0  0  0  0  0  0  0  0  0  0  0
    4.2990    5.7230   -0.2340 H   0  0  0  0  0  0  0  0  0  0  0  0
    4.5140    7.5790    0.6540 N   0  0  0  0  0  0  0  0  0  0  0  0
    3.1940    7.6890    1.2780 C   0  0  0  0  0  0  0  0  0  0  0  0
    2.9350    6.6900    1.6500 H   0  0  0  0  0  0  0  0  0  0  0  0
    3.2140    8.3670    2.1360 H   0  0  0  0  0  0  0  0  0  0  0  0
    2.1360    8.1600    0.2690 C   0  0  0  0  0  0  0  0  0  0  0  0
    2.3270    9.2030   -0.0130 H   0  0  0  0  0  0  0  0  0  0  0  0
    1.1490    8.1140    0.7330 H   0  0  0  0  0  0  0  0  0  0  0  0
    5.5990    8.2240    1.2380 C   0  0  0  0  0  0  0  0  0  0  0  0
    6.8980    8.2050    0.5350 C   0  0  0  0  0  0  0  0  0  0  0  0
   -0.7150    8.2230   -1.0620 O   0  0  0  0  0  0  0  0  0  0  0  0
    1.1130    6.1480   -2.6400 O   0  0  0  0  0  0  0  0  0  0  0  0
    5.5580    8.8150    2.3130 O   0  0  0  0  0  0  0  0  0  0  0  0
   -3.2410    8.1900   -0.1680 F   0  0  0  0  0  0  0  0  0  0  0  0
    7.9640    7.5000    1.0990 C   0  0  0  0  0  0  0  0  0  0  0  0
    7.8330    6.9560    2.0310 H   0  0  0  0  0  0  0  0  0  0  0  0
    9.2020    7.5020    0.4560 C   0  0  0  0  0  0  0  0  0  0  0  0
   10.0380    6.9540    0.8840 H   0  0  0  0  0  0  0  0  0  0  0  0
    9.3700    8.2140   -0.7330 C   0  0  0  0  0  0  0  0  0  0  0  0
   10.3380    8.2170   -1.2290 H   0  0  0  0  0  0  0  0  0  0  0  0
    8.3060    8.9340   -1.2820 C   0  0  0  0  0  0  0  0  0  0  0  0
    8.4490    9.4970   -2.2010 H   0  0  0  0  0  0  0  0  0  0  0  0
    7.0650    8.9370   -0.6450 C   0  0  0  0  0  0  0  0  0  0  0  0
    6.2410    9.5100   -1.0630 H   0  0  0  0  0  0  0  0  0  0  0  0
   -4.1320    2.9030    1.5900 C   0  0  0  0  0  0  0  0  0  0  0  0
   -5.2990    2.2340    1.3190 N   0  0  0  0  0  0  0  0  0  0  0  0
   -5.5390    1.4980    1.9700 H   0  0  0  0  0  0  0  0  0  0  0  0
   -3.2660    2.3980    2.3020 O   0  0  0  0  0  0  0  0  0  0  0  0
   -6.1940    2.3660    0.2860 C   0  0  0  0  0  0  0  0  0  0  0  0
   -5.7980    3.1540   -1.1770 S   0  0  0  0  0  0  0  0  0  0  0  0
   -7.3390    2.7530   -1.8050 C   0  0  0  0  0  0  0  0  0  0  0  0
   -7.6500    3.0570   -2.7940 H   0  0  0  0  0  0  0  0  0  0  0  0
   -8.0310    2.0100   -0.8740 C   0  0  0  0  0  0  0  0  0  0  0  0
   -9.0280    1.6100   -1.0100 H   0  0  0  0  0  0  0  0  0  0  0  0
   -7.3640    1.7700    0.3110 N   0  0  0  0  0  0  0  0  0  0  0  0
  1  2  1  0  0  0  0
  1  3  1  0  0  0  0
  1  8  2  0  0  0  0
  3  4  1  0  0  0  0
  3  5  2  0  0  0  0
  5  6  1  0  0  0  0
  5 46  1  0  0  0  0
  6  7  2  0  0  0  0
  6  9  1  0  0  0  0
  7  8  1  0  0  0  0
  7 13  1  0  0  0  0
  8 35  1  0  0  0  0
  9 10  1  0  0  0  0
  9 11  1  0  0  0  0
 11 12  1  0  0  0  0
 11 13  2  0  0  0  0
 13 14  1  0  0  0  0
 14 15  1  0  0  0  0
 14 32  2  0  0  0  0
 15 16  1  0  0  0  0
 15 33  2  0  0  0  0
 16 17  1  0  0  0  0
 16 27  1  0  0  0  0
 17 18  1  0  0  0  0
 17 19  1  0  0  0  0
 17 20  1  0  0  0  0
 20 21  1  0  0  0  0
 20 22  1  0  0  0  0
 20 23  1  0  0  0  0
 23 24  1  0  0  0  0
 23 30  1  0  0  0  0
 24 25  1  0  0  0  0
 24 26  1  0  0  0  0
 24 27  1  0  0  0  0
 27 28  1  0  0  0  0
 27 29  1  0  0  0  0
 30 31  1  0  0  0  0
 30 34  2  0  0  0  0
 31 36  1  0  0  0  0
 31 44  2  0  0  0  0
 36 37  1  0  0  0  0
 36 38  2  0  0  0  0
 38 39  1  0  0  0  0
 38 40  1  0  0  0  0
 40 41  1  0  0  0  0
 40 42  2  0  0  0  0
 42 43  1  0  0  0  0
 42 44  1  0  0  0  0
 44 45  1  0  0  0  0
 46 47  1  0  0  0  0
 46 49  2  0  0  0  0
 47 48  1  0  0  0  0
 47 50  1  0  0  0  0
 50 51  1  0  0  0  0
 50 56  2  0  0  0  0
 51 52  1  0  0  0  0
 52 53  1  0  0  0  0
 52 54  2  0  0  0  0
 54 55  1  0  0  0  0
 54 56  1  0  0  0  0
M  END
>  <Activity>
10.2441

>  <AM1_dipole>
4.46642

>  <AM1_E>
-149173

>  <AM1_Eele>
-1.20077e+006

>  <AM1_HF>
0.01981

>  <AM1_HOMO>
-9.11906

>  <AM1_IP>
9.11906

>  <AM1_LUMO>
-1.01633

>  <diameter>
19

>  <petitjean>
0.473684

>  <petitjeanSC>
0.9

>  <radius>
10

>  <VDistEq>
3.98009

>  <VDistMa>
10.023

>  <weinerPath>
4461

>  <weinerPol>
60

>  <BCUT_PEOE_0>
-2.71188

>  <BCUT_PEOE_1>
-0.634596

>  <BCUT_PEOE_2>
0.665052

>  <BCUT_PEOE_3>
2.65031

>  <BCUT_SLOGP_0>
-2.86001

>  <BCUT_SLOGP_1>
-0.527847

>  <BCUT_SLOGP_2>
0.787129

>  <BCUT_SLOGP_3>
2.50337

>  <BCUT_SMR_0>
-2.43203

>  <BCUT_SMR_1>
-0.436027

>  <BCUT_SMR_2>
0.831718

>  <BCUT_SMR_3>
2.92027

>  <GCUT_PEOE_0>
-0.857897

>  <GCUT_PEOE_1>
-0.43053

>  <GCUT_PEOE_2>
0.0915594

>  <GCUT_PEOE_3>
2.70972

>  <GCUT_SLOGP_0>
-0.993299

>  <GCUT_SLOGP_1>
-0.332371

>  <GCUT_SLOGP_2>
0.203032

>  <GCUT_SLOGP_3>
2.69879

>  <GCUT_SMR_0>
-0.508915

>  <GCUT_SMR_1>
-0.215422

>  <GCUT_SMR_2>
0.228007

>  <GCUT_SMR_3>
2.98645

>  <a_aro>
20

>  <a_count>
56

>  <a_IC>
103.067

>  <a_ICM>
1.84049

>  <a_nH>
20

>  <b_1rotN>
7

>  <b_1rotR>
0.175

>  <b_ar>
21

>  <b_count>
60

>  <b_double>
4

>  <b_rotN>
8

>  <b_rotR>
0.2

>  <b_single>
35

>  <b_triple>
0

>  <chi0v>
19.6793

>  <chi0v_C>
14.1019

>  <chi1v>
12.0009

>  <chi1v_C>
6.44338

>  <chiral>
0

>  <chiral_u>
0

>  <nmol>
1

>  <reactive>
0

>  <rings>
5

>  <Weight>
505.53

>  <a_heavy>
36

>  <a_nB>
0

>  <a_nBr>
0

>  <a_nC>
25

>  <a_nCl>
0

>  <a_nF>
1

>  <a_nI>
0

>  <a_nN>
5

>  <a_nO>
4

>  <a_nP>
0

>  <a_nS>
1

>  <b_heavy>
40

>  <chi0>
25.2335

>  <chi0_C>
16.2503

>  <chi1>
17.4356

>  <chi1_C>
8.70791

>  <FCharge>
0

>  <VAdjEq>
0.334268

>  <VAdjMa>
6.32193

>  <zagreb>
194

>  <balabanJ>
1.15058

>  <PEOE_PC+>
3.32094

>  <PEOE_PC->
-3.32094

>  <PEOE_RPC+>
0.0888606

>  <PEOE_RPC->
0.108187

>  <PEOE_VSA+0>
90.6782

>  <PEOE_VSA+1>
101.06

>  <PEOE_VSA+2>
9.02085

>  <PEOE_VSA+3>
36.9986

>  <PEOE_VSA+4>
0

>  <PEOE_VSA+5>
47.3071

>  <PEOE_VSA+6>
0

>  <PEOE_VSA-0>
49.0196

>  <PEOE_VSA-1>
50.9957

>  <PEOE_VSA-2>
0

>  <PEOE_VSA-3>
0

>  <PEOE_VSA-4>
11.9086

>  <PEOE_VSA-5>
59.9503

>  <PEOE_VSA-6>
0.273782

>  <PEOE_VSA_FHYD>
0.738766

>  <PEOE_VSA_FNEG>
0.376516

>  <PEOE_VSA_FPNEG>
0.157766

>  <PEOE_VSA_FPOL>
0.261234

>  <PEOE_VSA_FPOS>
0.623484

>  <PEOE_VSA_FPPOS>
0.103468

>  <PEOE_VSA_HYD>
337.773

>  <PEOE_VSA_NEG>
172.148

>  <PEOE_VSA_PNEG>
72.1327

>  <PEOE_VSA_POL>
119.44

>  <PEOE_VSA_POS>
285.065

>  <PEOE_VSA_PPOS>
47.3071

>  <PC+>
6.628

>  <PC->
-6.629

>  <Q_PC+>
6.628

>  <Q_PC->
-6.629

>  <Q_RPC+>
0.098974

>  <Q_RPC->
0.0995625

>  <Q_VSA_FHYD>
0.54657

>  <Q_VSA_FNEG>
0.475546

>  <Q_VSA_FPNEG>
0.168047

>  <Q_VSA_FPOL>
0.45343

>  <Q_VSA_FPOS>
0.524454

>  <Q_VSA_FPPOS>
0.285384

>  <Q_VSA_HYD>
249.899

>  <Q_VSA_NEG>
217.426

>  <Q_VSA_PNEG>
76.8331

>  <Q_VSA_POL>
207.314

>  <Q_VSA_POS>
239.787

>  <Q_VSA_PPOS>
130.481

>  <RPC+>
0.098974

>  <RPC->
0.0995625

>  <lip_acc>
9

>  <lip_don>
2

>  <lip_druglike>
1

>  <lip_violation>
1

>  <opr_brigid>
27

>  <opr_leadlike>
0

>  <opr_nring>
5

>  <opr_nrot>
7

>  <opr_violation>
3

>  <E>
109.739

>  <E_ang>
21.3054

>  <E_ele>
15.2605

>  <E_nb>
66.8626

>  <E_oop>
0.310904

>  <E_sol>
-27.1641

>  <E_stb>
0.501651

>  <E_str>
6.61141

>  <E_strain>
0.00599702

>  <E_tor>
14.1469

>  <E_vdw>
51.6021

>  <E_rele>
0

>  <E_rnb>
0

>  <E_rsol>
0

>  <E_rvdw>
0

>  <Kier1>
27.5625

>  <Kier2>
12.4531

>  <Kier3>
6.11248

>  <KierA1>
19.5554

>  <KierA2>
8.74209

>  <KierA3>
4.25913

>  <KierFlex>
4.74875

>  <logS>
-5.76593

>  <MNDO_dipole>
4.05805

>  <MNDO_E>
-150102

>  <MNDO_Eele>
-1.19615e+006

>  <MNDO_HF>
-55.2201

>  <MNDO_HOMO>
-9.24233

>  <MNDO_IP>
9.24233

>  <MNDO_LUMO>
-1.0847

>  <apol>
69.5009

>  <bpol>
35.7791

>  <mr>
13.4153

>  <dipole>
1.04536

>  <dipoleX>
-0.103246

>  <dipoleY>
-0.869479

>  <dipoleZ>
-0.571069

>  <pmi>
16592.8

>  <pmiX>
13139.4

>  <pmiY>
2716.64

>  <pmiZ>
736.804

>  <rgyr>
5.72911

>  <a_acc>
5

>  <a_acid>
0

>  <a_base>
0

>  <a_don>
2

>  <a_hyd>
22

>  <vsa_acc>
59.9503

>  <vsa_acid>
0

>  <vsa_base>
0

>  <vsa_don>
11.3652

>  <vsa_hyd>
306.465

>  <vsa_other>
60.4737

>  <vsa_pol>
71.3154

>  <PM3_dipole>
4.70147

>  <PM3_E>
-135604

>  <PM3_Eele>
-1.17635e+006

>  <PM3_HF>
-62.9773

>  <PM3_HOMO>
-9.15933

>  <PM3_IP>
9.15933

>  <PM3_LUMO>
-1.13295

>  <SlogP>
3.1831

>  <SlogP_VSA0>
0

>  <SlogP_VSA1>
62.5089

>  <SlogP_VSA2>
49.7688

>  <SlogP_VSA3>
73.7583

>  <SlogP_VSA4>
81.1434

>  <SlogP_VSA5>
0

>  <SlogP_VSA6>
0

>  <SlogP_VSA7>
178.464

>  <SlogP_VSA8>
0

>  <SlogP_VSA9>
46.7385

>  <SMR>
13.158

>  <SMR_VSA0>
95.4489

>  <SMR_VSA1>
37.9943

>  <SMR_VSA2>
25.9065

>  <SMR_VSA3>
9.55672

>  <SMR_VSA4>
23.2286

>  <SMR_VSA5>
173.747

>  <SMR_VSA6>
95.2223

>  <SMR_VSA7>
31.2777

>  <ASA>
750.365

>  <ASA+>
331.119

>  <ASA->
316.595

>  <ASA_H>
519.245

>  <ASA_P>
231.119

>  <CASA+>
2194.66

>  <CASA->
2098.71

>  <DASA>
14.5248

>  <DCASA>
95.9535

>  <FASA+>
0.441278

>  <FASA->
0.421921

>  <FASA_H>
0.691991

>  <FASA_P>
0.308009

>  <FCASA+>
2.92479

>  <FCASA->
2.79691

>  <VSA>
480.11

>  <TPSA>
115.47

>  <density>
0.82066

>  <vdw_area>
457.213

>  <vdw_vol>
616.004

>  <vsurf_A>
3.59296

>  <vsurf_CP>
0.0596466

>  <vsurf_CW1>
2.6488

>  <vsurf_CW2>
2.20395

>  <vsurf_CW3>
1.49806

>  <vsurf_CW4>
0.815357

>  <vsurf_CW5>
0.401758

>  <vsurf_CW6>
0.167941

>  <vsurf_CW7>
0.0521463

>  <vsurf_CW8>
0.0163119

>  <vsurf_D1>
999.375

>  <vsurf_D2>
586.75

>  <vsurf_D3>
432.75

>  <vsurf_D4>
363

>  <vsurf_D5>
315.75

>  <vsurf_D6>
259.125

>  <vsurf_D7>
152.75

>  <vsurf_D8>
84.75

>  <vsurf_DD12>
7.38241

>  <vsurf_DD13>
1.22474

>  <vsurf_DD23>
7.14143

>  <vsurf_DW12>
0.707107

>  <vsurf_DW13>
0.5

>  <vsurf_DW23>
0.866025

>  <vsurf_EDmin1>
-2.65303

>  <vsurf_EDmin2>
-2.53618

>  <vsurf_EDmin3>
-2.52453

>  <vsurf_EWmin1>
-7.03893

>  <vsurf_EWmin2>
-6.70718

>  <vsurf_EWmin3>
-6.66639

>  <vsurf_G>
1.41683

>  <vsurf_HB1>
426.375

>  <vsurf_HB2>
497.75

>  <vsurf_HB3>
472.5

>  <vsurf_HB4>
216.75

>  <vsurf_HB5>
85.125

>  <vsurf_HB6>
34.625

>  <vsurf_HB7>
11

>  <vsurf_HB8>
2.625

>  <vsurf_HL1>
0.222704

>  <vsurf_HL2>
0.10124

>  <vsurf_ID1>
0.809163

>  <vsurf_ID2>
0.657312

>  <vsurf_ID3>
0.880157

>  <vsurf_ID4>
1.14699

>  <vsurf_ID5>
1.31387

>  <vsurf_ID6>
1.30669

>  <vsurf_ID7>
0.395528

>  <vsurf_ID8>
0.87586

>  <vsurf_IW1>
0.364711

>  <vsurf_IW2>
0.833865

>  <vsurf_IW3>
1.22855

>  <vsurf_IW4>
1.82601

>  <vsurf_IW5>
2.96525

>  <vsurf_IW6>
4.49383

>  <vsurf_IW7>
7.65874

>  <vsurf_IW8>
8.91681

>  <vsurf_R>
1.46674

>  <vsurf_S>
692.012

>  <vsurf_V>
1015

>  <vsurf_W1>
1749.38

>  <vsurf_W2>
1098.5

>  <vsurf_W3>
612.5

>  <vsurf_W4>
245.75

>  <vsurf_W5>
96.375

>  <vsurf_W6>
36.75

>  <vsurf_W7>
11

>  <vsurf_W8>
2.625

>  <vsurf_Wp1>
1323

>  <vsurf_Wp2>
600.75

>  <vsurf_Wp3>
140

>  <vsurf_Wp4>
29

>  <vsurf_Wp5>
11.25

>  <vsurf_Wp6>
2.125

>  <vsurf_Wp7>
0

>  <vsurf_Wp8>
0

>  <dens>
1.14535

>  <glob>
0.0499367

>  <std_dim1>
5.70495

>  <std_dim2>
1.4246

>  <std_dim3>
1.27486

>  <vol>
441.375

>  <logP(o/w)>
2.166

$$$$
D12.cdx
  MOE2008           3D

 59 63  0  0  0  0  0  0  0  0999 V2000
   -4.4500    2.8880    0.8060 C   0  0  0  0  0  0  0  0  0  0  0  0
   -5.2560    3.5990    0.9680 H   0  0  0  0  0  0  0  0  0  0  0  0
   -4.5310    1.6020    1.3330 C   0  0  0  0  0  0  0  0  0  0  0  0
   -5.4050    1.3330    1.9220 H   0  0  0  0  0  0  0  0  0  0  0  0
   -3.5070    0.6660    1.1110 C   0  0  0  0  0  0  0  0  0  0  0  0
   -2.3700    1.1080    0.4070 C   0  0  0  0  0  0  0  0  0  0  0  0
   -2.2550    2.3920   -0.1350 C   0  0  0  0  0  0  0  0  0  0  0  0
   -3.3310    3.2840    0.0680 C   0  0  0  0  0  0  0  0  0  0  0  0
   -1.2010    0.4390    0.1220 N   0  0  0  0  0  0  0  0  0  0  0  0
   -1.0010   -0.5060    0.4280 H   0  0  0  0  0  0  0  0  0  0  0  0
   -0.3710    1.2340   -0.6170 C   0  0  0  0  0  0  0  0  0  0  0  0
    0.5890    0.8540   -0.9440 H   0  0  0  0  0  0  0  0  0  0  0  0
   -0.9820    2.4630   -0.8000 C   0  0  0  0  0  0  0  0  0  0  0  0
   -0.3970    3.5840   -1.5270 C   0  0  0  0  0  0  0  0  0  0  0  0
    0.9800    3.4440   -2.1560 C   0  0  0  0  0  0  0  0  0  0  0  0
    2.0660    3.8950   -1.4070 N   0  0  0  0  0  0  0  0  0  0  0  0
    3.4180    3.7280   -1.9390 C   0  0  0  0  0  0  0  0  0  0  0  0
    3.4430    2.9000   -2.6560 H   0  0  0  0  0  0  0  0  0  0  0  0
    3.6560    4.6470   -2.4890 H   0  0  0  0  0  0  0  0  0  0  0  0
    4.4470    3.4970   -0.8290 C   0  0  0  0  0  0  0  0  0  0  0  0
    5.4510    3.4240   -1.2600 H   0  0  0  0  0  0  0  0  0  0  0  0
    4.2250    2.5540   -0.3160 H   0  0  0  0  0  0  0  0  0  0  0  0
    4.4210    4.5540    0.1930 N   0  0  0  0  0  0  0  0  0  0  0  0
    3.1870    5.3380    0.2990 C   0  0  0  0  0  0  0  0  0  0  0  0
    3.0760    5.7310    1.3160 H   0  0  0  0  0  0  0  0  0  0  0  0
    3.3040    6.1960   -0.3740 H   0  0  0  0  0  0  0  0  0  0  0  0
    1.9410    4.5350   -0.0900 C   0  0  0  0  0  0  0  0  0  0  0  0
    1.0610    5.1840   -0.0740 H   0  0  0  0  0  0  0  0  0  0  0  0
    1.7750    3.7280    0.6340 H   0  0  0  0  0  0  0  0  0  0  0  0
    5.4840    4.8750    1.0360 C   0  0  0  0  0  0  0  0  0  0  0  0
    6.6860    4.0120    1.0260 C   0  0  0  0  0  0  0  0  0  0  0  0
   -0.9520    4.6700   -1.6680 O   0  0  0  0  0  0  0  0  0  0  0  0
    1.0460    2.9240   -3.2650 O   0  0  0  0  0  0  0  0  0  0  0  0
    5.4950    5.8430    1.7910 O   0  0  0  0  0  0  0  0  0  0  0  0
   -3.3120    4.5340   -0.4120 F   0  0  0  0  0  0  0  0  0  0  0  0
    6.6000    2.6670    1.4030 C   0  0  0  0  0  0  0  0  0  0  0  0
    5.6500    2.2340    1.7020 H   0  0  0  0  0  0  0  0  0  0  0  0
    7.7520    1.8810    1.4080 C   0  0  0  0  0  0  0  0  0  0  0  0
    7.6980    0.8350    1.6970 H   0  0  0  0  0  0  0  0  0  0  0  0
    8.9820    2.4400    1.0540 C   0  0  0  0  0  0  0  0  0  0  0  0
    9.8790    1.8260    1.0630 H   0  0  0  0  0  0  0  0  0  0  0  0
    9.0670    3.7890    0.7010 C   0  0  0  0  0  0  0  0  0  0  0  0
   10.0290    4.2220    0.4390 H   0  0  0  0  0  0  0  0  0  0  0  0
    7.9190    4.5810    0.6930 C   0  0  0  0  0  0  0  0  0  0  0  0
    7.9870    5.6340    0.4300 H   0  0  0  0  0  0  0  0  0  0  0  0
   -3.5860   -0.6950    1.6980 C   0  0  0  0  0  0  0  0  0  0  0  0
   -4.7380   -1.4410    1.6690 N   0  0  0  0  0  0  0  0  0  0  0  0
   -4.8250   -2.1380    2.3970 H   0  0  0  0  0  0  0  0  0  0  0  0
   -2.5810   -1.1070    2.2750 O   0  0  0  0  0  0  0  0  0  0  0  0
   -5.7930   -1.4310    0.7900 C   0  0  0  0  0  0  0  0  0  0  0  0
   -5.6800   -0.7450   -0.7680 S   0  0  0  0  0  0  0  0  0  0  0  0
   -7.2770   -1.2630   -1.1030 C   0  0  0  0  0  0  0  0  0  0  0  0
   -7.7540   -1.0500   -2.0500 H   0  0  0  0  0  0  0  0  0  0  0  0
   -7.7800   -1.9610   -0.0220 C   0  0  0  0  0  0  0  0  0  0  0  0
   -6.9070   -2.0740    1.0480 N   0  0  0  0  0  0  0  0  0  0  0  0
   -9.1180   -2.5940    0.0830 C   0  0  0  0  0  0  0  0  0  0  0  0
   -9.8040   -2.2030   -0.6740 H   0  0  0  0  0  0  0  0  0  0  0  0
   -9.5550   -2.4030    1.0680 H   0  0  0  0  0  0  0  0  0  0  0  0
   -9.0340   -3.6770   -0.0540 H   0  0  0  0  0  0  0  0  0  0  0  0
  1  2  1  0  0  0  0
  1  3  1  0  0  0  0
  1  8  2  0  0  0  0
  3  4  1  0  0  0  0
  3  5  2  0  0  0  0
  5  6  1  0  0  0  0
  5 46  1  0  0  0  0
  6  7  2  0  0  0  0
  6  9  1  0  0  0  0
  7  8  1  0  0  0  0
  7 13  1  0  0  0  0
  8 35  1  0  0  0  0
  9 10  1  0  0  0  0
  9 11  1  0  0  0  0
 11 12  1  0  0  0  0
 11 13  2  0  0  0  0
 13 14  1  0  0  0  0
 14 15  1  0  0  0  0
 14 32  2  0  0  0  0
 15 16  1  0  0  0  0
 15 33  2  0  0  0  0
 16 17  1  0  0  0  0
 16 27  1  0  0  0  0
 17 18  1  0  0  0  0
 17 19  1  0  0  0  0
 17 20  1  0  0  0  0
 20 21  1  0  0  0  0
 20 22  1  0  0  0  0
 20 23  1  0  0  0  0
 23 24  1  0  0  0  0
 23 30  1  0  0  0  0
 24 25  1  0  0  0  0
 24 26  1  0  0  0  0
 24 27  1  0  0  0  0
 27 28  1  0  0  0  0
 27 29  1  0  0  0  0
 30 31  1  0  0  0  0
 30 34  2  0  0  0  0
 31 36  1  0  0  0  0
 31 44  2  0  0  0  0
 36 37  1  0  0  0  0
 36 38  2  0  0  0  0
 38 39  1  0  0  0  0
 38 40  1  0  0  0  0
 40 41  1  0  0  0  0
 40 42  2  0  0  0  0
 42 43  1  0  0  0  0
 42 44  1  0  0  0  0
 44 45  1  0  0  0  0
 46 47  1  0  0  0  0
 46 49  2  0  0  0  0
 47 48  1  0  0  0  0
 47 50  1  0  0  0  0
 50 51  1  0  0  0  0
 50 55  2  0  0  0  0
 51 52  1  0  0  0  0
 52 53  1  0  0  0  0
 52 54  2  0  0  0  0
 54 55  1  0  0  0  0
 54 56  1  0  0  0  0
 56 57  1  0  0  0  0
 56 58  1  0  0  0  0
 56 59  1  0  0  0  0
M  END
>  <Activity>
11.2365

>  <AM1_dipole>
3.24033

>  <AM1_E>
-152765

>  <AM1_Eele>
-1.25428e+006

>  <AM1_HF>
-27.6289

>  <AM1_HOMO>
-8.97935

>  <AM1_IP>
8.97935

>  <AM1_LUMO>
-1.18292

>  <diameter>
20

>  <petitjean>
0.5

>  <petitjeanSC>
1

>  <radius>
10

>  <VDistEq>
4.02254

>  <VDistMa>
10.1012

>  <weinerPath>
4837

>  <weinerPol>
62

>  <BCUT_PEOE_0>
-2.71188

>  <BCUT_PEOE_1>
-0.623803

>  <BCUT_PEOE_2>
0.59354

>  <BCUT_PEOE_3>
2.65031

>  <BCUT_SLOGP_0>
-2.86001

>  <BCUT_SLOGP_1>
-0.52316

>  <BCUT_SLOGP_2>
0.721027

>  <BCUT_SLOGP_3>
2.50337

>  <BCUT_SMR_0>
-2.43203

>  <BCUT_SMR_1>
-0.415959

>  <BCUT_SMR_2>
0.830178

>  <BCUT_SMR_3>
2.92027

>  <GCUT_PEOE_0>
-0.857896

>  <GCUT_PEOE_1>
-0.430523

>  <GCUT_PEOE_2>
0.0766965

>  <GCUT_PEOE_3>
2.71831

>  <GCUT_SLOGP_0>
-0.993307

>  <GCUT_SLOGP_1>
-0.332351

>  <GCUT_SLOGP_2>
0.182648

>  <GCUT_SLOGP_3>
2.71154

>  <GCUT_SMR_0>
-0.508916

>  <GCUT_SMR_1>
-0.215219

>  <GCUT_SMR_2>
0.227435

>  <GCUT_SMR_3>
2.99593

>  <a_aro>
20

>  <a_count>
59

>  <a_IC>
107.147

>  <a_ICM>
1.81606

>  <a_nH>
22

>  <b_1rotN>
7

>  <b_1rotR>
0.170732

>  <b_ar>
21

>  <b_count>
63

>  <b_double>
4

>  <b_rotN>
8

>  <b_rotR>
0.195122

>  <b_single>
38

>  <b_triple>
0

>  <chi0v>
20.6019

>  <chi0v_C>
15.0246

>  <chi1v>
12.4217

>  <chi1v_C>
6.89872

>  <chiral>
0

>  <chiral_u>
0

>  <nmol>
1

>  <reactive>
0

>  <rings>
5

>  <Weight>
519.557

>  <a_heavy>
37

>  <a_nB>
0

>  <a_nBr>
0

>  <a_nC>
26

>  <a_nCl>
0

>  <a_nF>
1

>  <a_nI>
0

>  <a_nN>
5

>  <a_nO>
4

>  <a_nP>
0

>  <a_nS>
1

>  <b_heavy>
41

>  <chi0>
26.1037

>  <chi0_C>
17.1206

>  <chi1>
17.8294

>  <chi1_C>
9.19351

>  <FCharge>
0

>  <VAdjEq>
0.327039

>  <VAdjMa>
6.35755

>  <zagreb>
200

>  <balabanJ>
1.14787

>  <PEOE_PC+>
3.33806

>  <PEOE_PC->
-3.33806

>  <PEOE_RPC+>
0.0884049

>  <PEOE_RPC->
0.107633

>  <PEOE_VSA+0>
93.428

>  <PEOE_VSA+1>
96.7948

>  <PEOE_VSA+2>
9.02085

>  <PEOE_VSA+3>
36.9986

>  <PEOE_VSA+4>
0

>  <PEOE_VSA+5>
47.3071

>  <PEOE_VSA+6>
0

>  <PEOE_VSA-0>
67.7673

>  <PEOE_VSA-1>
50.9957

>  <PEOE_VSA-2>
0

>  <PEOE_VSA-3>
0

>  <PEOE_VSA-4>
17.5912

>  <PEOE_VSA-5>
54.2677

>  <PEOE_VSA-6>
0.273782

>  <PEOE_VSA_FHYD>
0.748254

>  <PEOE_VSA_FNEG>
0.402356

>  <PEOE_VSA_FPNEG>
0.152036

>  <PEOE_VSA_FPOL>
0.251746

>  <PEOE_VSA_FPOS>
0.597644

>  <PEOE_VSA_FPPOS>
0.0997104

>  <PEOE_VSA_HYD>
355.005

>  <PEOE_VSA_NEG>
190.896

>  <PEOE_VSA_PNEG>
72.1327

>  <PEOE_VSA_POL>
119.44

>  <PEOE_VSA_POS>
283.549

>  <PEOE_VSA_PPOS>
47.3071

>  <PC+>
6.628

>  <PC->
-6.629

>  <Q_PC+>
6.628

>  <Q_PC->
-6.629

>  <Q_RPC+>
0.098974

>  <Q_RPC->
0.0995625

>  <Q_VSA_FHYD>
0.563039

>  <Q_VSA_FNEG>
0.458274

>  <Q_VSA_FPNEG>
0.161943

>  <Q_VSA_FPOL>
0.436961

>  <Q_VSA_FPOS>
0.541726

>  <Q_VSA_FPPOS>
0.275018

>  <Q_VSA_HYD>
267.131

>  <Q_VSA_NEG>
217.426

>  <Q_VSA_PNEG>
76.8331

>  <Q_VSA_POL>
207.314

>  <Q_VSA_POS>
257.019

>  <Q_VSA_PPOS>
130.481

>  <RPC+>
0.098974

>  <RPC->
0.0995625

>  <lip_acc>
9

>  <lip_don>
2

>  <lip_druglike>
1

>  <lip_violation>
1

>  <opr_brigid>
27

>  <opr_leadlike>
0

>  <opr_nring>
5

>  <opr_nrot>
7

>  <opr_violation>
3

>  <E>
111.196

>  <E_ang>
20.1374

>  <E_ele>
15.1582

>  <E_nb>
67.7861

>  <E_oop>
0.318102

>  <E_sol>
-27.9902

>  <E_stb>
0.469502

>  <E_str>
6.80206

>  <E_strain>
0.00652697

>  <E_tor>
15.683

>  <E_vdw>
52.6279

>  <E_rele>
0

>  <E_rnb>
4.26326e-014

>  <E_rsol>
4.26326e-014

>  <E_rvdw>
0

>  <Kier1>
28.5259

>  <Kier2>
12.6688

>  <Kier3>
6.34294

>  <KierA1>
20.4422

>  <KierA2>
8.98841

>  <KierA3>
4.46791

>  <KierFlex>
4.96603

>  <logS>
-6.07932

>  <MNDO_dipole>
5.21122

>  <MNDO_E>
-153716

>  <MNDO_Eele>
-1.25329e+006

>  <MNDO_HF>
-64.1858

>  <MNDO_HOMO>
-9.27105

>  <MNDO_IP>
9.27105

>  <MNDO_LUMO>
-1.0926

>  <apol>
72.5944

>  <bpol>
37.9656

>  <mr>
13.8707

>  <dipole>
1.36604

>  <dipoleX>
-0.236655

>  <dipoleY>
-1.34374

>  <dipoleZ>
-0.0664636

>  <pmi>
17226.7

>  <pmiX>
13268

>  <pmiY>
3113.21

>  <pmiZ>
845.517

>  <rgyr>
5.75817

>  <a_acc>
5

>  <a_acid>
0

>  <a_base>
0

>  <a_don>
2

>  <a_hyd>
23

>  <vsa_acc>
59.9503

>  <vsa_acid>
0

>  <vsa_base>
0

>  <vsa_don>
11.3652

>  <vsa_hyd>
322.273

>  <vsa_other>
60.4737

>  <vsa_pol>
71.3154

>  <PM3_dipole>
4.6823

>  <PM3_E>
-139054

>  <PM3_Eele>
-1.22298e+006

>  <PM3_HF>
-69.48

>  <PM3_HOMO>
-9.14847

>  <PM3_IP>
9.14847

>  <PM3_LUMO>
-1.0831

>  <SlogP>
3.49152

>  <SlogP_VSA0>
0

>  <SlogP_VSA1>
62.5089

>  <SlogP_VSA2>
49.7688

>  <SlogP_VSA3>
73.7583

>  <SlogP_VSA4>
83.9001

>  <SlogP_VSA5>
0

>  <SlogP_VSA6>
0

>  <SlogP_VSA7>
161.25

>  <SlogP_VSA8>
0

>  <SlogP_VSA9>
80.0646

>  <SMR>
13.6317

>  <SMR_VSA0>
95.4489

>  <SMR_VSA1>
37.9943

>  <SMR_VSA2>
25.9065

>  <SMR_VSA3>
12.3135

>  <SMR_VSA4>
23.2286

>  <SMR_VSA5>
156.533

>  <SMR_VSA6>
95.2223

>  <SMR_VSA7>
64.6037

>  <ASA>
791.313

>  <ASA+>
308.137

>  <ASA->
317.902

>  <ASA_H>
565.365

>  <ASA_P>
225.947

>  <CASA+>
2042.33

>  <CASA->
2107.37

>  <DASA>
9.76543

>  <DCASA>
65.0432

>  <FASA+>
0.389399

>  <FASA->
0.40174

>  <FASA_H>
0.714465

>  <FASA_P>
0.285535

>  <FCASA+>
2.58094

>  <FCASA->
2.66314

>  <VSA>
496.768

>  <TPSA>
115.47

>  <density>
0.811259

>  <vdw_area>
474.445

>  <vdw_vol>
640.433

>  <vsurf_A>
1.92378

>  <vsurf_CP>
0.0628809

>  <vsurf_CW1>
2.62045

>  <vsurf_CW2>
2.12943

>  <vsurf_CW3>
1.46317

>  <vsurf_CW4>
0.779964

>  <vsurf_CW5>
0.389007

>  <vsurf_CW6>
0.159347

>  <vsurf_CW7>
0.0475809

>  <vsurf_CW8>
0.0149064

>  <vsurf_D1>
1048.25

>  <vsurf_D2>
625.125

>  <vsurf_D3>
469.75

>  <vsurf_D4>
395.75

>  <vsurf_D5>
337.125

>  <vsurf_D6>
262.75

>  <vsurf_D7>
168.25

>  <vsurf_D8>
96.75

>  <vsurf_DD12>
0.707107

>  <vsurf_DD13>
3.84057

>  <vsurf_DD23>
3.77492

>  <vsurf_DW12>
0.5

>  <vsurf_DW13>
0.707107

>  <vsurf_DW23>
0.5

>  <vsurf_EDmin1>
-2.72788

>  <vsurf_EDmin2>
-2.67044

>  <vsurf_EDmin3>
-2.6229

>  <vsurf_EWmin1>
-6.91546

>  <vsurf_EWmin2>
-6.90121

>  <vsurf_EWmin3>
-6.85191

>  <vsurf_G>
1.43912

>  <vsurf_HB1>
434.75

>  <vsurf_HB2>
507.125

>  <vsurf_HB3>
463.125

>  <vsurf_HB4>
215

>  <vsurf_HB5>
88.125

>  <vsurf_HB6>
33

>  <vsurf_HB7>
10.125

>  <vsurf_HB8>
2.75

>  <vsurf_HL1>
0.211283

>  <vsurf_HL2>
0.0897031

>  <vsurf_ID1>
0.694919

>  <vsurf_ID2>
0.684199

>  <vsurf_ID3>
0.742422

>  <vsurf_ID4>
0.835748

>  <vsurf_ID5>
0.95363

>  <vsurf_ID6>
1.14087

>  <vsurf_ID7>
0.555307

>  <vsurf_ID8>
0.919146

>  <vsurf_IW1>
0.336333

>  <vsurf_IW2>
0.282209

>  <vsurf_IW3>
0.579848

>  <vsurf_IW4>
1.02185

>  <vsurf_IW5>
2.06168

>  <vsurf_IW6>
3.91167

>  <vsurf_IW7>
7.29661

>  <vsurf_IW8>
8.46515

>  <vsurf_R>
1.46298

>  <vsurf_S>
721.475

>  <vsurf_V>
1055.5

>  <vsurf_W1>
1780.63

>  <vsurf_W2>
1114.13

>  <vsurf_W3>
610.75

>  <vsurf_W4>
244.625

>  <vsurf_W5>
99.25

>  <vsurf_W6>
35.5

>  <vsurf_W7>
10.125

>  <vsurf_W8>
2.75

>  <vsurf_Wp1>
1345.88

>  <vsurf_Wp2>
607

>  <vsurf_Wp3>
147.625

>  <vsurf_Wp4>
29.625

>  <vsurf_Wp5>
11.125

>  <vsurf_Wp6>
2.5

>  <vsurf_Wp7>
0

>  <vsurf_Wp8>
0

>  <dens>
1.12733

>  <glob>
0.0402387

>  <std_dim1>
5.85387

>  <std_dim2>
1.79871

>  <std_dim3>
1.17426

>  <vol>
460.875

>  <logP(o/w)>
2.424

$$$$
D12.cdx
  MOE2008           3D

 62 67  0  0  0  0  0  0  0  0999 V2000
   -3.8190   -0.7660    0.4710 C   0  0  0  0  0  0  0  0  0  0  0  0
   -4.4440    0.1090    0.3120 H   0  0  0  0  0  0  0  0  0  0  0  0
   -4.2930   -1.8420    1.2150 C   0  0  0  0  0  0  0  0  0  0  0  0
   -5.2900   -1.7830    1.6470 H   0  0  0  0  0  0  0  0  0  0  0  0
   -3.5000   -2.9850    1.4130 C   0  0  0  0  0  0  0  0  0  0  0  0
   -2.1940   -2.9650    0.8890 C   0  0  0  0  0  0  0  0  0  0  0  0
   -1.6860   -1.9010    0.1380 C   0  0  0  0  0  0  0  0  0  0  0  0
   -2.5310   -0.7900   -0.0730 C   0  0  0  0  0  0  0  0  0  0  0  0
   -1.1940   -3.9050    0.9930 N   0  0  0  0  0  0  0  0  0  0  0  0
   -1.2830   -4.7710    1.5120 H   0  0  0  0  0  0  0  0  0  0  0  0
   -0.0870   -3.4950    0.3060 C   0  0  0  0  0  0  0  0  0  0  0  0
    0.7920   -4.1270    0.2700 H   0  0  0  0  0  0  0  0  0  0  0  0
   -0.3440   -2.2500   -0.2430 C   0  0  0  0  0  0  0  0  0  0  0  0
    0.6050   -1.4780   -1.0370 C   0  0  0  0  0  0  0  0  0  0  0  0
    1.9680   -2.0640   -1.3710 C   0  0  0  0  0  0  0  0  0  0  0  0
    3.0680   -1.5160   -0.7150 N   0  0  0  0  0  0  0  0  0  0  0  0
    4.4090   -2.0050   -1.0350 C   0  0  0  0  0  0  0  0  0  0  0  0
    4.6280   -2.8120   -0.3260 H   0  0  0  0  0  0  0  0  0  0  0  0
    4.4230   -2.4370   -2.0410 H   0  0  0  0  0  0  0  0  0  0  0  0
    5.4630   -0.8990   -0.9200 C   0  0  0  0  0  0  0  0  0  0  0  0
    5.2550   -0.1200   -1.6620 H   0  0  0  0  0  0  0  0  0  0  0  0
    6.4580   -1.3080   -1.1200 H   0  0  0  0  0  0  0  0  0  0  0  0
    5.4510   -0.2470    0.3990 N   0  0  0  0  0  0  0  0  0  0  0  0
    4.2140   -0.3550    1.1780 C   0  0  0  0  0  0  0  0  0  0  0  0
    4.3090   -1.2600    1.7900 H   0  0  0  0  0  0  0  0  0  0  0  0
    4.1240    0.4960    1.8620 H   0  0  0  0  0  0  0  0  0  0  0  0
    2.9680   -0.4500    0.2910 C   0  0  0  0  0  0  0  0  0  0  0  0
    2.8300    0.4880   -0.2600 H   0  0  0  0  0  0  0  0  0  0  0  0
    2.0800   -0.6090    0.9100 H   0  0  0  0  0  0  0  0  0  0  0  0
    6.5320    0.4310    0.9620 C   0  0  0  0  0  0  0  0  0  0  0  0
    7.7270    0.6810    0.1260 C   0  0  0  0  0  0  0  0  0  0  0  0
    0.3810   -0.3470   -1.4570 O   0  0  0  0  0  0  0  0  0  0  0  0
    2.0060   -2.9810   -2.1850 O   0  0  0  0  0  0  0  0  0  0  0  0
    6.5620    0.8310    2.1220 O   0  0  0  0  0  0  0  0  0  0  0  0
   -2.1320    0.2770   -0.7790 F   0  0  0  0  0  0  0  0  0  0  0  0
    7.6320    1.4460   -1.0410 C   0  0  0  0  0  0  0  0  0  0  0  0
    6.6790    1.8620   -1.3550 H   0  0  0  0  0  0  0  0  0  0  0  0
    8.7760    1.6880   -1.8000 C   0  0  0  0  0  0  0  0  0  0  0  0
    8.7100    2.2770   -2.7110 H   0  0  0  0  0  0  0  0  0  0  0  0
   10.0100    1.1820   -1.3850 C   0  0  0  0  0  0  0  0  0  0  0  0
   10.9020    1.3760   -1.9760 H   0  0  0  0  0  0  0  0  0  0  0  0
   10.1060    0.4410   -0.2050 C   0  0  0  0  0  0  0  0  0  0  0  0
   11.0710    0.0610    0.1210 H   0  0  0  0  0  0  0  0  0  0  0  0
    8.9650    0.1930    0.5580 C   0  0  0  0  0  0  0  0  0  0  0  0
    9.0410   -0.3740    1.4820 H   0  0  0  0  0  0  0  0  0  0  0  0
   -3.9940   -4.1120    2.2390 C   0  0  0  0  0  0  0  0  0  0  0  0
   -5.2540   -4.6360    2.0940 N   0  0  0  0  0  0  0  0  0  0  0  0
   -5.6240   -5.1070    2.9100 H   0  0  0  0  0  0  0  0  0  0  0  0
   -3.2370   -4.5270    3.1150 O   0  0  0  0  0  0  0  0  0  0  0  0
   -6.0990   -4.6680    1.0110 C   0  0  0  0  0  0  0  0  0  0  0  0
   -5.5550   -4.3940   -0.5790 S   0  0  0  0  0  0  0  0  0  0  0  0
   -7.1290   -4.7330   -1.1820 C   0  0  0  0  0  0  0  0  0  0  0  0
   -7.9570   -5.0730   -0.1100 C   0  0  0  0  0  0  0  0  0  0  0  0
   -7.3460   -5.0520    1.1330 N   0  0  0  0  0  0  0  0  0  0  0  0
   -7.5970   -4.7110   -2.5060 C   0  0  0  0  0  0  0  0  0  0  0  0
   -6.9400   -4.4460   -3.3290 H   0  0  0  0  0  0  0  0  0  0  0  0
   -8.9350   -5.0430   -2.7370 C   0  0  0  0  0  0  0  0  0  0  0  0
   -9.3200   -5.0330   -3.7540 H   0  0  0  0  0  0  0  0  0  0  0  0
   -9.7790   -5.3860   -1.6840 C   0  0  0  0  0  0  0  0  0  0  0  0
  -10.8160   -5.6430   -1.8830 H   0  0  0  0  0  0  0  0  0  0  0  0
   -9.3020   -5.4060   -0.3700 C   0  0  0  0  0  0  0  0  0  0  0  0
   -9.9600   -5.6750    0.4510 H   0  0  0  0  0  0  0  0  0  0  0  0
  1  2  1  0  0  0  0
  1  3  1  0  0  0  0
  1  8  2  0  0  0  0
  3  4  1  0  0  0  0
  3  5  2  0  0  0  0
  5  6  1  0  0  0  0
  5 46  1  0  0  0  0
  6  7  2  0  0  0  0
  6  9  1  0  0  0  0
  7  8  1  0  0  0  0
  7 13  1  0  0  0  0
  8 35  1  0  0  0  0
  9 10  1  0  0  0  0
  9 11  1  0  0  0  0
 11 12  1  0  0  0  0
 11 13  2  0  0  0  0
 13 14  1  0  0  0  0
 14 15  1  0  0  0  0
 14 32  2  0  0  0  0
 15 16  1  0  0  0  0
 15 33  2  0  0  0  0
 16 17  1  0  0  0  0
 16 27  1  0  0  0  0
 17 18  1  0  0  0  0
 17 19  1  0  0  0  0
 17 20  1  0  0  0  0
 20 21  1  0  0  0  0
 20 22  1  0  0  0  0
 20 23  1  0  0  0  0
 23 24  1  0  0  0  0
 23 30  1  0  0  0  0
 24 25  1  0  0  0  0
 24 26  1  0  0  0  0
 24 27  1  0  0  0  0
 27 28  1  0  0  0  0
 27 29  1  0  0  0  0
 30 31  1  0  0  0  0
 30 34  2  0  0  0  0
 31 36  1  0  0  0  0
 31 44  2  0  0  0  0
 36 37  1  0  0  0  0
 36 38  2  0  0  0  0
 38 39  1  0  0  0  0
 38 40  1  0  0  0  0
 40 41  1  0  0  0  0
 40 42  2  0  0  0  0
 42 43  1  0  0  0  0
 42 44  1  0  0  0  0
 44 45  1  0  0  0  0
 46 47  1  0  0  0  0
 46 49  2  0  0  0  0
 47 48  1  0  0  0  0
 47 50  1  0  0  0  0
 50 51  1  0  0  0  0
 50 54  2  0  0  0  0
 51 52  1  0  0  0  0
 52 53  1  0  0  0  0
 52 55  2  0  0  0  0
 53 54  1  0  0  0  0
 53 61  2  0  0  0  0
 55 56  1  0  0  0  0
 55 57  1  0  0  0  0
 57 58  1  0  0  0  0
 57 59  2  0  0  0  0
 59 60  1  0  0  0  0
 59 61  1  0  0  0  0
 61 62  1  0  0  0  0
M  END
>  <Activity>
9.4948

>  <AM1_dipole>
2.43205

>  <AM1_E>
-161613

>  <AM1_Eele>
-1.36125e+006

>  <AM1_HF>
-4.89872

>  <AM1_HOMO>
-9.02628

>  <AM1_IP>
9.02628

>  <AM1_LUMO>
-1.22776

>  <diameter>
21

>  <petitjean>
0.47619

>  <petitjeanSC>
0.909091

>  <radius>
11

>  <VDistEq>
4.12369

>  <VDistMa>
10.3238

>  <weinerPath>
6047

>  <weinerPol>
69

>  <BCUT_PEOE_0>
-2.71188

>  <BCUT_PEOE_1>
-0.632817

>  <BCUT_PEOE_2>
0.642743

>  <BCUT_PEOE_3>
2.65031

>  <BCUT_SLOGP_0>
-2.86001

>  <BCUT_SLOGP_1>
-0.525669

>  <BCUT_SLOGP_2>
0.761863

>  <BCUT_SLOGP_3>
2.50337

>  <BCUT_SMR_0>
-2.43203

>  <BCUT_SMR_1>
-0.422536

>  <BCUT_SMR_2>
0.844421

>  <BCUT_SMR_3>
2.92027

>  <GCUT_PEOE_0>
-0.857891

>  <GCUT_PEOE_1>
-0.430521

>  <GCUT_PEOE_2>
0.0768625

>  <GCUT_PEOE_3>
2.73045

>  <GCUT_SLOGP_0>
-0.993289

>  <GCUT_SLOGP_1>
-0.332344

>  <GCUT_SLOGP_2>
0.185783

>  <GCUT_SLOGP_3>
2.73783

>  <GCUT_SMR_0>
-0.508916

>  <GCUT_SMR_1>
-0.215141

>  <GCUT_SMR_2>
0.228026

>  <GCUT_SMR_3>
3.01353

>  <a_aro>
24

>  <a_count>
62

>  <a_IC>
110.562

>  <a_ICM>
1.78325

>  <a_nH>
22

>  <b_1rotN>
7

>  <b_1rotR>
0.155556

>  <b_ar>
26

>  <b_count>
67

>  <b_double>
4

>  <b_rotN>
8

>  <b_rotR>
0.177778

>  <b_single>
37

>  <b_triple>
0

>  <chi0v>
21.834

>  <chi0v_C>
16.2566

>  <chi1v>
13.3656

>  <chi1v_C>
7.93739

>  <chiral>
0

>  <chiral_u>
0

>  <nmol>
1

>  <reactive>
0

>  <rings>
6

>  <Weight>
555.59

>  <a_heavy>
40

>  <a_nB>
0

>  <a_nBr>
0

>  <a_nC>
29

>  <a_nCl>
0

>  <a_nF>
1

>  <a_nI>
0

>  <a_nN>
5

>  <a_nO>
4

>  <a_nP>
0

>  <a_nS>
1

>  <b_heavy>
45

>  <chi0>
27.8024

>  <chi0_C>
18.8193

>  <chi1>
19.4019

>  <chi1_C>
10.8577

>  <FCharge>
0

>  <VAdjEq>
0.312375

>  <VAdjMa>
6.49185

>  <zagreb>
220

>  <balabanJ>
1.01965

>  <PEOE_PC+>
3.48889

>  <PEOE_PC->
-3.48889

>  <PEOE_RPC+>
0.0845829

>  <PEOE_RPC->
0.102979

>  <PEOE_VSA+0>
73.9323

>  <PEOE_VSA+1>
116.291

>  <PEOE_VSA+2>
9.02085

>  <PEOE_VSA+3>
17.238

>  <PEOE_VSA+4>
19.7606

>  <PEOE_VSA+5>
47.3071

>  <PEOE_VSA+6>
0

>  <PEOE_VSA-0>
65.4591

>  <PEOE_VSA-1>
73.5294

>  <PEOE_VSA-2>
0

>  <PEOE_VSA-3>
0

>  <PEOE_VSA-4>
17.5912

>  <PEOE_VSA-5>
54.2677

>  <PEOE_VSA-6>
0.273782

>  <PEOE_VSA_FHYD>
0.7186

>  <PEOE_VSA_FNEG>
0.426791

>  <PEOE_VSA_FPNEG>
0.14582

>  <PEOE_VSA_FPOL>
0.2814

>  <PEOE_VSA_FPOS>
0.573209

>  <PEOE_VSA_FPPOS>
0.135581

>  <PEOE_VSA_HYD>
355.47

>  <PEOE_VSA_NEG>
211.121

>  <PEOE_VSA_PNEG>
72.1327

>  <PEOE_VSA_POL>
139.2

>  <PEOE_VSA_POS>
283.549

>  <PEOE_VSA_PPOS>
67.0677

>  <PC+>
7.118

>  <PC->
-7.119

>  <Q_PC+>
7.118

>  <Q_PC->
-7.119

>  <Q_RPC+>
0.0921607

>  <Q_RPC->
0.0927097

>  <Q_VSA_FHYD>
0.567361

>  <Q_VSA_FNEG>
0.509863

>  <Q_VSA_FPNEG>
0.155322

>  <Q_VSA_FPOL>
0.432639

>  <Q_VSA_FPOS>
0.490137

>  <Q_VSA_FPPOS>
0.277317

>  <Q_VSA_HYD>
280.657

>  <Q_VSA_NEG>
252.214

>  <Q_VSA_PNEG>
76.8331

>  <Q_VSA_POL>
214.014

>  <Q_VSA_POS>
242.456

>  <Q_VSA_PPOS>
137.181

>  <RPC+>
0.0921607

>  <RPC->
0.0927097

>  <lip_acc>
9

>  <lip_don>
2

>  <lip_druglike>
1

>  <lip_violation>
1

>  <opr_brigid>
32

>  <opr_leadlike>
0

>  <opr_nring>
6

>  <opr_nrot>
7

>  <opr_violation>
3

>  <E>
123.369

>  <E_ang>
21.6565

>  <E_ele>
14.2689

>  <E_nb>
78.1875

>  <E_oop>
0.313478

>  <E_sol>
-25.5324

>  <E_stb>
-0.37862

>  <E_str>
8.23643

>  <E_strain>
0.0064885

>  <E_tor>
15.3537

>  <E_vdw>
63.9186

>  <E_rele>
0

>  <E_rnb>
9.9476e-014

>  <E_rsol>
9.9476e-014

>  <E_rvdw>
0

>  <Kier1>
30.0444

>  <Kier2>
13.3292

>  <Kier3>
6.45188

>  <KierA1>
21.1572

>  <KierA2>
9.29555

>  <KierA3>
4.46897

>  <KierFlex>
4.91669

>  <logS>
-7.58141

>  <MNDO_dipole>
3.10188

>  <MNDO_E>
-162545

>  <MNDO_Eele>
-1.3537e+006

>  <MNDO_HF>
-46.0491

>  <MNDO_HOMO>
-9.23683

>  <MNDO_IP>
9.23683

>  <MNDO_LUMO>
-1.08046

>  <apol>
77.8744

>  <bpol>
37.9656

>  <mr>
15.0357

>  <dipole>
0.86587

>  <dipoleX>
-0.332372

>  <dipoleY>
-0.614627

>  <dipoleZ>
-0.511364

>  <pmi>
22246.4

>  <pmiX>
18474.6

>  <pmiY>
2725.02

>  <pmiZ>
1046.7

>  <rgyr>
6.32779

>  <a_acc>
5

>  <a_acid>
0

>  <a_base>
0

>  <a_don>
2

>  <a_hyd>
26

>  <vsa_acc>
59.9503

>  <vsa_acid>
0

>  <vsa_base>
0

>  <vsa_don>
11.3652

>  <vsa_hyd>
342.499

>  <vsa_other>
60.4737

>  <vsa_pol>
71.3154

>  <PM3_dipole>
3.57446

>  <PM3_E>
-147239

>  <PM3_Eele>
-1.32699e+006

>  <PM3_HF>
-17.9158

>  <PM3_HOMO>
-9.12568

>  <PM3_IP>
9.12568

>  <PM3_LUMO>
-1.13038

>  <SlogP>
4.3363

>  <SlogP_VSA0>
0

>  <SlogP_VSA1>
62.5089

>  <SlogP_VSA2>
49.7688

>  <SlogP_VSA3>
73.7583

>  <SlogP_VSA4>
81.1434

>  <SlogP_VSA5>
0

>  <SlogP_VSA6>
0

>  <SlogP_VSA7>
218.896

>  <SlogP_VSA8>
0

>  <SlogP_VSA9>
46.7385

>  <SMR>
14.9086

>  <SMR_VSA0>
95.4489

>  <SMR_VSA1>
37.9943

>  <SMR_VSA2>
25.9065

>  <SMR_VSA3>
9.55672

>  <SMR_VSA4>
26.1185

>  <SMR_VSA5>
211.289

>  <SMR_VSA6>
95.2223

>  <SMR_VSA7>
31.2777

>  <ASA>
839.162

>  <ASA+>
360.58

>  <ASA->
367.829

>  <ASA_H>
603.527

>  <ASA_P>
235.635

>  <CASA+>
2566.61

>  <CASA->
2618.57

>  <DASA>
7.24873

>  <DCASA>
51.9643

>  <FASA+>
0.429691

>  <FASA->
0.438329

>  <FASA_H>
0.719202

>  <FASA_P>
0.280798

>  <FCASA+>
3.05854

>  <FCASA->
3.12046

>  <VSA>
526.549

>  <TPSA>
115.47

>  <density>
0.807519

>  <vdw_area>
494.671

>  <vdw_vol>
688.021

>  <vsurf_A>
3.19346

>  <vsurf_CP>
0.0643059

>  <vsurf_CW1>
2.61622

>  <vsurf_CW2>
2.15082

>  <vsurf_CW3>
1.43447

>  <vsurf_CW4>
0.7392

>  <vsurf_CW5>
0.365786

>  <vsurf_CW6>
0.151511

>  <vsurf_CW7>
0.0472722

>  <vsurf_CW8>
0.0186114

>  <vsurf_D1>
1167.5

>  <vsurf_D2>
693.875

>  <vsurf_D3>
511

>  <vsurf_D4>
431.75

>  <vsurf_D5>
370.75

>  <vsurf_D6>
302.125

>  <vsurf_D7>
184.625

>  <vsurf_D8>
100.875

>  <vsurf_DD12>
0.707107

>  <vsurf_DD13>
0.5

>  <vsurf_DD23>
1.11803

>  <vsurf_DW12>
0.5

>  <vsurf_DW13>
0.5

>  <vsurf_DW23>
0.707107

>  <vsurf_EDmin1>
-2.85906

>  <vsurf_EDmin2>
-2.80036

>  <vsurf_EDmin3>
-2.78528

>  <vsurf_EWmin1>
-7.16002

>  <vsurf_EWmin2>
-6.86562

>  <vsurf_EWmin3>
-6.80249

>  <vsurf_G>
1.4577

>  <vsurf_HB1>
421.375

>  <vsurf_HB2>
474.75

>  <vsurf_HB3>
471.5

>  <vsurf_HB4>
215.375

>  <vsurf_HB5>
87.125

>  <vsurf_HB6>
32.625

>  <vsurf_HB7>
11.25

>  <vsurf_HB8>
3.875

>  <vsurf_HL1>
0.191781

>  <vsurf_HL2>
0.081355

>  <vsurf_ID1>
0.609278

>  <vsurf_ID2>
0.498505

>  <vsurf_ID3>
0.600233

>  <vsurf_ID4>
0.787929

>  <vsurf_ID5>
0.947361

>  <vsurf_ID6>
0.962966

>  <vsurf_ID7>
0.334717

>  <vsurf_ID8>
0.855417

>  <vsurf_IW1>
0.278439

>  <vsurf_IW2>
0.743519

>  <vsurf_IW3>
1.08635

>  <vsurf_IW4>
1.53899

>  <vsurf_IW5>
2.67508

>  <vsurf_IW6>
4.38088

>  <vsurf_IW7>
7.42054

>  <vsurf_IW8>
8.6307

>  <vsurf_R>
1.47307

>  <vsurf_S>
760.149

>  <vsurf_V>
1119.75

>  <vsurf_W1>
1887.63

>  <vsurf_W2>
1154.13

>  <vsurf_W3>
626.75

>  <vsurf_W4>
244.5

>  <vsurf_W5>
98

>  <vsurf_W6>
35.125

>  <vsurf_W7>
11.25

>  <vsurf_W8>
3.875

>  <vsurf_Wp1>
1466.25

>  <vsurf_Wp2>
679.375

>  <vsurf_Wp3>
155.25

>  <vsurf_Wp4>
29.125

>  <vsurf_Wp5>
10.875

>  <vsurf_Wp6>
2.5

>  <vsurf_Wp7>
0

>  <vsurf_Wp8>
0

>  <dens>
1.14172

>  <glob>
0.0331598

>  <std_dim1>
6.51863

>  <std_dim2>
1.53225

>  <std_dim3>
1.18703

>  <vol>
486.625

>  <logP(o/w)>
3.812

$$$$
D12.cdx
  MOE2008           3D

 63 68  0  0  0  0  0  0  0  0999 V2000
   -3.9780   -4.7950    0.7320 C   0  0  0  0  0  0  0  0  0  0  0  0
   -4.6220   -3.9190    0.7360 H   0  0  0  0  0  0  0  0  0  0  0  0
   -4.3950   -5.9750    1.3430 C   0  0  0  0  0  0  0  0  0  0  0  0
   -5.3620   -5.9910    1.8430 H   0  0  0  0  0  0  0  0  0  0  0  0
   -3.5810   -7.1190    1.3320 C   0  0  0  0  0  0  0  0  0  0  0  0
   -2.3070   -6.9970    0.7450 C   0  0  0  0  0  0  0  0  0  0  0  0
   -1.8530   -5.8270    0.1290 C   0  0  0  0  0  0  0  0  0  0  0  0
   -2.7230   -4.7160    0.1210 C   0  0  0  0  0  0  0  0  0  0  0  0
   -1.2870   -7.9200    0.6670 N   0  0  0  0  0  0  0  0  0  0  0  0
   -1.3350   -8.8500    1.0670 H   0  0  0  0  0  0  0  0  0  0  0  0
   -0.2250   -7.3930   -0.0110 C   0  0  0  0  0  0  0  0  0  0  0  0
    0.6610   -7.9940   -0.1780 H   0  0  0  0  0  0  0  0  0  0  0  0
   -0.5260   -6.0880   -0.3600 C   0  0  0  0  0  0  0  0  0  0  0  0
    0.3750   -5.1870   -1.0720 C   0  0  0  0  0  0  0  0  0  0  0  0
    1.7390   -5.6810   -1.5250 C   0  0  0  0  0  0  0  0  0  0  0  0
    2.8450   -5.2110   -0.8190 N   0  0  0  0  0  0  0  0  0  0  0  0
    4.1870   -5.6140   -1.2420 C   0  0  0  0  0  0  0  0  0  0  0  0
    4.4400   -6.5140   -0.6710 H   0  0  0  0  0  0  0  0  0  0  0  0
    4.1820   -5.8870   -2.3030 H   0  0  0  0  0  0  0  0  0  0  0  0
    5.2210   -4.5140   -0.9840 C   0  0  0  0  0  0  0  0  0  0  0  0
    4.9780   -3.6350   -1.5920 H   0  0  0  0  0  0  0  0  0  0  0  0
    6.2180   -4.8650   -1.2690 H   0  0  0  0  0  0  0  0  0  0  0  0
    5.2330   -4.0730    0.4200 N   0  0  0  0  0  0  0  0  0  0  0  0
    4.0190   -4.3240    1.2010 C   0  0  0  0  0  0  0  0  0  0  0  0
    4.1450   -5.3080    1.6670 H   0  0  0  0  0  0  0  0  0  0  0  0
    3.9310   -3.5880    2.0070 H   0  0  0  0  0  0  0  0  0  0  0  0
    2.7520   -4.3120    0.3390 C   0  0  0  0  0  0  0  0  0  0  0  0
    2.5830   -3.3050   -0.0610 H   0  0  0  0  0  0  0  0  0  0  0  0
    1.8840   -4.5810    0.9470 H   0  0  0  0  0  0  0  0  0  0  0  0
    6.3170   -3.4700    1.0570 C   0  0  0  0  0  0  0  0  0  0  0  0
    7.4870   -3.0700    0.2430 C   0  0  0  0  0  0  0  0  0  0  0  0
    0.1080   -4.0160   -1.3230 O   0  0  0  0  0  0  0  0  0  0  0  0
    1.7770   -6.4590   -2.4730 O   0  0  0  0  0  0  0  0  0  0  0  0
    6.3700   -3.2520    2.2640 O   0  0  0  0  0  0  0  0  0  0  0  0
   -2.3780   -3.5520   -0.4470 F   0  0  0  0  0  0  0  0  0  0  0  0
    7.3500   -2.1380   -0.7910 C   0  0  0  0  0  0  0  0  0  0  0  0
    6.3820   -1.6980   -1.0170 H   0  0  0  0  0  0  0  0  0  0  0  0
    8.4710   -1.7600   -1.5300 C   0  0  0  0  0  0  0  0  0  0  0  0
    8.3720   -1.0400   -2.3380 H   0  0  0  0  0  0  0  0  0  0  0  0
    9.7230   -2.2980   -1.2240 C   0  0  0  0  0  0  0  0  0  0  0  0
   10.5960   -1.9980   -1.7990 H   0  0  0  0  0  0  0  0  0  0  0  0
    9.8600   -3.2090   -0.1750 C   0  0  0  0  0  0  0  0  0  0  0  0
   10.8390   -3.6140    0.0670 H   0  0  0  0  0  0  0  0  0  0  0  0
    8.7430   -3.5930    0.5660 C   0  0  0  0  0  0  0  0  0  0  0  0
    8.8520   -4.2930    1.3910 H   0  0  0  0  0  0  0  0  0  0  0  0
   -4.0090   -8.3660    2.0120 C   0  0  0  0  0  0  0  0  0  0  0  0
   -5.2760   -8.8770    1.8770 N   0  0  0  0  0  0  0  0  0  0  0  0
   -5.5620   -9.5350    2.5920 H   0  0  0  0  0  0  0  0  0  0  0  0
   -3.1780   -8.9170    2.7310 O   0  0  0  0  0  0  0  0  0  0  0  0
   -6.2140   -8.6650    0.9000 C   0  0  0  0  0  0  0  0  0  0  0  0
   -6.0020   -8.0620   -0.3150 N   0  0  0  0  0  0  0  0  0  0  0  0
   -5.1330   -7.6790   -0.6530 H   0  0  0  0  0  0  0  0  0  0  0  0
   -7.1830   -8.0720   -1.0130 C   0  0  0  0  0  0  0  0  0  0  0  0
   -8.0680   -8.7420   -0.1780 C   0  0  0  0  0  0  0  0  0  0  0  0
   -7.4460   -9.1150    0.9880 N   0  0  0  0  0  0  0  0  0  0  0  0
   -7.5360   -7.5800   -2.2700 C   0  0  0  0  0  0  0  0  0  0  0  0
   -6.8280   -7.0640   -2.9090 H   0  0  0  0  0  0  0  0  0  0  0  0
   -8.8610   -7.7880   -2.6740 C   0  0  0  0  0  0  0  0  0  0  0  0
   -9.1840   -7.4210   -3.6460 H   0  0  0  0  0  0  0  0  0  0  0  0
   -9.7740   -8.4580   -1.8550 C   0  0  0  0  0  0  0  0  0  0  0  0
  -10.7960   -8.6060   -2.1970 H   0  0  0  0  0  0  0  0  0  0  0  0
   -9.3910   -8.9440   -0.5980 C   0  0  0  0  0  0  0  0  0  0  0  0
  -10.0970   -9.4660    0.0380 H   0  0  0  0  0  0  0  0  0  0  0  0
  1  2  1  0  0  0  0
  1  3  1  0  0  0  0
  1  8  2  0  0  0  0
  3  4  1  0  0  0  0
  3  5  2  0  0  0  0
  5  6  1  0  0  0  0
  5 46  1  0  0  0  0
  6  7  2  0  0  0  0
  6  9  1  0  0  0  0
  7  8  1  0  0  0  0
  7 13  1  0  0  0  0
  8 35  1  0  0  0  0
  9 10  1  0  0  0  0
  9 11  1  0  0  0  0
 11 12  1  0  0  0  0
 11 13  2  0  0  0  0
 13 14  1  0  0  0  0
 14 15  1  0  0  0  0
 14 32  2  0  0  0  0
 15 16  1  0  0  0  0
 15 33  2  0  0  0  0
 16 17  1  0  0  0  0
 16 27  1  0  0  0  0
 17 18  1  0  0  0  0
 17 19  1  0  0  0  0
 17 20  1  0  0  0  0
 20 21  1  0  0  0  0
 20 22  1  0  0  0  0
 20 23  1  0  0  0  0
 23 24  1  0  0  0  0
 23 30  1  0  0  0  0
 24 25  1  0  0  0  0
 24 26  1  0  0  0  0
 24 27  1  0  0  0  0
 27 28  1  0  0  0  0
 27 29  1  0  0  0  0
 30 31  1  0  0  0  0
 30 34  2  0  0  0  0
 31 36  1  0  0  0  0
 31 44  2  0  0  0  0
 36 37  1  0  0  0  0
 36 38  2  0  0  0  0
 38 39  1  0  0  0  0
 38 40  1  0  0  0  0
 40 41  1  0  0  0  0
 40 42  2  0  0  0  0
 42 43  1  0  0  0  0
 42 44  1  0  0  0  0
 44 45  1  0  0  0  0
 46 47  1  0  0  0  0
 46 49  2  0  0  0  0
 47 48  1  0  0  0  0
 47 50  1  0  0  0  0
 50 51  1  0  0  0  0
 50 55  2  0  0  0  0
 51 52  1  0  0  0  0
 51 53  1  0  0  0  0
 53 54  1  0  0  0  0
 53 56  2  0  0  0  0
 54 55  1  0  0  0  0
 54 62  2  0  0  0  0
 56 57  1  0  0  0  0
 56 58  1  0  0  0  0
 58 59  1  0  0  0  0
 58 60  2  0  0  0  0
 60 61  1  0  0  0  0
 60 62  1  0  0  0  0
 62 63  1  0  0  0  0
M  END
>  <Activity>
10.3979

>  <AM1_dipole>
3.17946

>  <AM1_E>
-162209

>  <AM1_Eele>
-1.36658e+006

>  <AM1_HF>
7.05084

>  <AM1_HOMO>
-8.95571

>  <AM1_IP>
8.95571

>  <AM1_LUMO>
-1.24786

>  <diameter>
21

>  <petitjean>
0.47619

>  <petitjeanSC>
0.909091

>  <radius>
11

>  <VDistEq>
4.12369

>  <VDistMa>
10.3238

>  <weinerPath>
6047

>  <weinerPol>
69

>  <BCUT_PEOE_0>
-2.71188

>  <BCUT_PEOE_1>
-0.642284

>  <BCUT_PEOE_2>
0.657601

>  <BCUT_PEOE_3>
2.65031

>  <BCUT_SLOGP_0>
-2.86001

>  <BCUT_SLOGP_1>
-0.55655

>  <BCUT_SLOGP_2>
0.768567

>  <BCUT_SLOGP_3>
2.50336

>  <BCUT_SMR_0>
-2.43203

>  <BCUT_SMR_1>
-0.451934

>  <BCUT_SMR_2>
0.834533

>  <BCUT_SMR_3>
2.92027

>  <GCUT_PEOE_0>
-0.857827

>  <GCUT_PEOE_1>
-0.45259

>  <GCUT_PEOE_2>
0.084552

>  <GCUT_PEOE_3>
2.7397

>  <GCUT_SLOGP_0>
-0.993574

>  <GCUT_SLOGP_1>
-0.350324

>  <GCUT_SLOGP_2>
0.17808

>  <GCUT_SLOGP_3>
2.73911

>  <GCUT_SMR_0>
-0.508916

>  <GCUT_SMR_1>
-0.217768

>  <GCUT_SMR_2>
0.219801

>  <GCUT_SMR_3>
3.01914

>  <a_aro>
24

>  <a_count>
63

>  <a_IC>
108.135

>  <a_ICM>
1.71644

>  <a_nH>
23

>  <b_1rotN>
7

>  <b_1rotR>
0.155556

>  <b_ar>
26

>  <b_count>
68

>  <b_double>
4

>  <b_rotN>
8

>  <b_rotR>
0.177778

>  <b_single>
38

>  <b_triple>
0

>  <chi0v>
21.1092

>  <chi0v_C>
16.2566

>  <chi1v>
12.6409

>  <chi1v_C>
7.93739

>  <chiral>
0

>  <chiral_u>
0

>  <nmol>
1

>  <reactive>
0

>  <rings>
6

>  <Weight>
538.539

>  <a_heavy>
40

>  <a_nB>
0

>  <a_nBr>
0

>  <a_nC>
29

>  <a_nCl>
0

>  <a_nF>
1

>  <a_nI>
0

>  <a_nN>
6

>  <a_nO>
4

>  <a_nP>
0

>  <a_nS>
0

>  <b_heavy>
45

>  <chi0>
27.8024

>  <chi0_C>
18.8193

>  <chi1>
19.4019

>  <chi1_C>
10.8577

>  <FCharge>
0

>  <VAdjEq>
0.312375

>  <VAdjMa>
6.49185

>  <zagreb>
220

>  <balabanJ>
1.01965

>  <PEOE_PC+>
3.68168

>  <PEOE_PC->
-3.68168

>  <PEOE_RPC+>
0.0801538

>  <PEOE_RPC->
0.0975868

>  <PEOE_VSA+0>
73.9323

>  <PEOE_VSA+1>
109.823

>  <PEOE_VSA+2>
9.02085

>  <PEOE_VSA+3>
25.857

>  <PEOE_VSA+4>
15.6816

>  <PEOE_VSA+5>
47.3071

>  <PEOE_VSA+6>
0

>  <PEOE_VSA-0>
73.5294

>  <PEOE_VSA-1>
61.2745

>  <PEOE_VSA-2>
0

>  <PEOE_VSA-3>
0

>  <PEOE_VSA-4>
17.5912

>  <PEOE_VSA-5>
54.4046

>  <PEOE_VSA-6>
0.273782

>  <PEOE_VSA_FHYD>
0.723226

>  <PEOE_VSA_FNEG>
0.423727

>  <PEOE_VSA_FPNEG>
0.147883

>  <PEOE_VSA_FPOL>
0.276774

>  <PEOE_VSA_FPOS>
0.576273

>  <PEOE_VSA_FPPOS>
0.128891

>  <PEOE_VSA_HYD>
353.438

>  <PEOE_VSA_NEG>
207.074

>  <PEOE_VSA_PNEG>
72.2696

>  <PEOE_VSA_POL>
135.258

>  <PEOE_VSA_POS>
281.622

>  <PEOE_VSA_PPOS>
62.9887

>  <PC+>
7.189

>  <PC->
-7.191

>  <Q_PC+>
7.189

>  <Q_PC->
-7.191

>  <Q_RPC+>
0.0912505

>  <Q_RPC->
0.0917814

>  <Q_VSA_FHYD>
0.539289

>  <Q_VSA_FNEG>
0.48937

>  <Q_VSA_FPNEG>
0.157221

>  <Q_VSA_FPOL>
0.460711

>  <Q_VSA_FPOS>
0.51063

>  <Q_VSA_FPPOS>
0.303491

>  <Q_VSA_HYD>
263.548

>  <Q_VSA_NEG>
239.153

>  <Q_VSA_PNEG>
76.8331

>  <Q_VSA_POL>
225.148

>  <Q_VSA_POS>
249.543

>  <Q_VSA_PPOS>
148.315

>  <RPC+>
0.0912505

>  <RPC->
0.0917814

>  <lip_acc>
10

>  <lip_don>
3

>  <lip_druglike>
1

>  <lip_violation>
1

>  <opr_brigid>
32

>  <opr_leadlike>
0

>  <opr_nring>
6

>  <opr_nrot>
7

>  <opr_violation>
3

>  <E>
117.825

>  <E_ang>
18.3863

>  <E_ele>
14.6031

>  <E_nb>
78.1008

>  <E_oop>
0.194783

>  <E_sol>
-29.9483

>  <E_stb>
0.0888893

>  <E_str>
7.90913

>  <E_strain>
0.00803356

>  <E_tor>
13.1455

>  <E_vdw>
63.4977

>  <E_rele>
0

>  <E_rnb>
-2.84217e-014

>  <E_rsol>
-2.84217e-014

>  <E_rvdw>
0

>  <Kier1>
30.0444

>  <Kier2>
13.3292

>  <Kier3>
6.45188

>  <KierA1>
19.9648

>  <KierA2>
8.75659

>  <KierA3>
4.20478

>  <KierFlex>
4.3706

>  <logS>
-7.316

>  <MNDO_dipole>
3.86566

>  <MNDO_E>
-162374

>  <MNDO_Eele>
-1.36171e+006

>  <MNDO_HF>
-23.3736

>  <MNDO_HOMO>
-9.0831

>  <MNDO_IP>
9.0831

>  <MNDO_LUMO>
-1.1143

>  <apol>
76.7412

>  <bpol>
37.4388

>  <mr>
14.5751

>  <dipole>
0.80752

>  <dipoleX>
0.224584

>  <dipoleY>
-0.196062

>  <dipoleZ>
-0.750473

>  <pmi>
21141.1

>  <pmiX>
17549.7

>  <pmiY>
2627.06

>  <pmiZ>
964.268

>  <rgyr>
6.26549

>  <a_acc>
6

>  <a_acid>
0

>  <a_base>
0

>  <a_don>
4

>  <a_hyd>
25

>  <vsa_acc>
54.2677

>  <vsa_acid>
0

>  <vsa_base>
0

>  <vsa_don>
11.3652

>  <vsa_hyd>
325.253

>  <vsa_other>
62.9887

>  <vsa_pol>
76.998

>  <PM3_dipole>
2.71368

>  <PM3_E>
-147055

>  <PM3_Eele>
-1.33995e+006

>  <PM3_HF>
-58.3328

>  <PM3_HOMO>
-9.06759

>  <PM3_IP>
9.06759

>  <PM3_LUMO>
-1.26996

>  <SlogP>
3.6029

>  <SlogP_VSA0>
0

>  <SlogP_VSA1>
62.5089

>  <SlogP_VSA2>
66.5543

>  <SlogP_VSA3>
73.7583

>  <SlogP_VSA4>
81.1434

>  <SlogP_VSA5>
0

>  <SlogP_VSA6>
0

>  <SlogP_VSA7>
220.295

>  <SlogP_VSA8>
0

>  <SlogP_VSA9>
16.8592

>  <SMR>
14.556

>  <SMR_VSA0>
95.4489

>  <SMR_VSA1>
37.9943

>  <SMR_VSA2>
42.6921

>  <SMR_VSA3>
9.55672

>  <SMR_VSA4>
28.9152

>  <SMR_VSA5>
211.289

>  <SMR_VSA6>
95.2223

>  <SMR_VSA7>
0

>  <ASA>
823.182

>  <ASA+>
364.119

>  <ASA->
350.302

>  <ASA_H>
576.629

>  <ASA_P>
246.553

>  <CASA+>
2617.65

>  <CASA->
2519.02

>  <DASA>
13.8171

>  <DCASA>
98.6306

>  <FASA+>
0.442331

>  <FASA->
0.425546

>  <FASA_H>
0.700488

>  <FASA_P>
0.299512

>  <FCASA+>
3.17992

>  <FCASA->
3.0601

>  <VSA>
517.922

>  <TPSA>
131.26

>  <density>
0.789733

>  <vdw_area>
488.696

>  <vdw_vol>
681.925

>  <vsurf_A>
3.05925

>  <vsurf_CP>
0.0621196

>  <vsurf_CW1>
2.62108

>  <vsurf_CW2>
2.15431

>  <vsurf_CW3>
1.42985

>  <vsurf_CW4>
0.748684

>  <vsurf_CW5>
0.383452

>  <vsurf_CW6>
0.155326

>  <vsurf_CW7>
0.0454205

>  <vsurf_CW8>
0.0114801

>  <vsurf_D1>
1142

>  <vsurf_D2>
673.5

>  <vsurf_D3>
502.75

>  <vsurf_D4>
425.625

>  <vsurf_D5>
368

>  <vsurf_D6>
302.5

>  <vsurf_D7>
187.125

>  <vsurf_D8>
103.375

>  <vsurf_DD12>
0.5

>  <vsurf_DD13>
0.5

>  <vsurf_DD23>
0.707107

>  <vsurf_DW12>
0.5

>  <vsurf_DW13>
0.5

>  <vsurf_DW23>
1

>  <vsurf_EDmin1>
-3.00966

>  <vsurf_EDmin2>
-2.78815

>  <vsurf_EDmin3>
-2.7012

>  <vsurf_EWmin1>
-7.17051

>  <vsurf_EWmin2>
-6.85007

>  <vsurf_EWmin3>
-6.74404

>  <vsurf_G>
1.45768

>  <vsurf_HB1>
425

>  <vsurf_HB2>
488.25

>  <vsurf_HB3>
452.25

>  <vsurf_HB4>
209.125

>  <vsurf_HB5>
86.25

>  <vsurf_HB6>
32.875

>  <vsurf_HB7>
9.625

>  <vsurf_HB8>
2.5

>  <vsurf_HL1>
0.203381

>  <vsurf_HL2>
0.0851689

>  <vsurf_ID1>
0.539713

>  <vsurf_ID2>
0.401096

>  <vsurf_ID3>
0.495185

>  <vsurf_ID4>
0.664153

>  <vsurf_ID5>
0.829599

>  <vsurf_ID6>
0.802211

>  <vsurf_ID7>
0.507741

>  <vsurf_ID8>
1.23368

>  <vsurf_IW1>
0.319296

>  <vsurf_IW2>
0.804185

>  <vsurf_IW3>
1.19517

>  <vsurf_IW4>
1.63665

>  <vsurf_IW5>
2.70263

>  <vsurf_IW6>
4.39011

>  <vsurf_IW7>
7.69678

>  <vsurf_IW8>
8.81093

>  <vsurf_R>
1.46575

>  <vsurf_S>
752.599

>  <vsurf_V>
1103.13

>  <vsurf_W1>
1876

>  <vsurf_W2>
1158.38

>  <vsurf_W3>
624.125

>  <vsurf_W4>
251.25

>  <vsurf_W5>
102.25

>  <vsurf_W6>
36.25

>  <vsurf_W7>
10

>  <vsurf_W8>
2.5

>  <vsurf_Wp1>
1451

>  <vsurf_Wp2>
670.125

>  <vsurf_Wp3>
171.875

>  <vsurf_Wp4>
42.125

>  <vsurf_Wp5>
16

>  <vsurf_Wp6>
3.375

>  <vsurf_Wp7>
0.375

>  <vsurf_Wp8>
0

>  <dens>
1.10868

>  <glob>
0.03154

>  <std_dim1>
6.4106

>  <std_dim2>
1.53236

>  <std_dim3>
1.13849

>  <vol>
485.75

>  <logP(o/w)>
2.934

$$$$
D12.cdx
  MOE2008           3D

 66 71  0  0  0  0  0  0  0  0999 V2000
   -2.3650  -11.5430    1.8470 C   0  0  0  0  0  0  0  0  0  0  0  0
   -2.6520  -11.5680    2.8940 H   0  0  0  0  0  0  0  0  0  0  0  0
   -2.5560  -12.6610    1.0390 C   0  0  0  0  0  0  0  0  0  0  0  0
   -2.9810  -13.5580    1.4840 H   0  0  0  0  0  0  0  0  0  0  0  0
   -2.2210  -12.6370   -0.3240 C   0  0  0  0  0  0  0  0  0  0  0  0
   -1.6050  -11.4650   -0.8100 C   0  0  0  0  0  0  0  0  0  0  0  0
   -1.3840  -10.3280   -0.0250 C   0  0  0  0  0  0  0  0  0  0  0  0
   -1.7940  -10.3800    1.3250 C   0  0  0  0  0  0  0  0  0  0  0  0
   -1.1020  -11.1950   -2.0630 N   0  0  0  0  0  0  0  0  0  0  0  0
   -1.1150  -11.8580   -2.8300 H   0  0  0  0  0  0  0  0  0  0  0  0
   -0.5870   -9.9300   -2.1060 C   0  0  0  0  0  0  0  0  0  0  0  0
   -0.1540   -9.5530   -3.0240 H   0  0  0  0  0  0  0  0  0  0  0  0
   -0.7360   -9.3500   -0.8580 C   0  0  0  0  0  0  0  0  0  0  0  0
   -0.2830   -8.0080   -0.4990 C   0  0  0  0  0  0  0  0  0  0  0  0
    0.5910   -7.2130   -1.4550 C   0  0  0  0  0  0  0  0  0  0  0  0
    1.9690   -7.2670   -1.2480 N   0  0  0  0  0  0  0  0  0  0  0  0
    2.6320   -8.0400   -0.1850 C   0  0  0  0  0  0  0  0  0  0  0  0
    1.9120   -8.4710    0.5130 H   0  0  0  0  0  0  0  0  0  0  0  0
    3.1500   -8.8690   -0.6810 H   0  0  0  0  0  0  0  0  0  0  0  0
    3.6420   -7.1750    0.5810 C   0  0  0  0  0  0  0  0  0  0  0  0
    4.1780   -7.7750    1.3180 H   0  0  0  0  0  0  0  0  0  0  0  0
    3.1110   -6.3910    1.1350 H   0  0  0  0  0  0  0  0  0  0  0  0
    4.5530   -6.4850   -0.3460 N   0  0  0  0  0  0  0  0  0  0  0  0
    3.8750   -5.6810   -1.3670 C   0  0  0  0  0  0  0  0  0  0  0  0
    3.3580   -4.8670   -0.8440 H   0  0  0  0  0  0  0  0  0  0  0  0
    4.5930   -5.2310   -2.0590 H   0  0  0  0  0  0  0  0  0  0  0  0
    2.8660   -6.5330   -2.1480 C   0  0  0  0  0  0  0  0  0  0  0  0
    3.3950   -7.2860   -2.7440 H   0  0  0  0  0  0  0  0  0  0  0  0
    2.2980   -5.9010   -2.8380 H   0  0  0  0  0  0  0  0  0  0  0  0
    5.9440   -6.5190   -0.3160 C   0  0  0  0  0  0  0  0  0  0  0  0
    6.6110   -7.4710    0.5970 C   0  0  0  0  0  0  0  0  0  0  0  0
   -0.5460   -7.4660    0.5700 O   0  0  0  0  0  0  0  0  0  0  0  0
    0.0330   -6.5840   -2.3470 O   0  0  0  0  0  0  0  0  0  0  0  0
    6.6700   -5.8130   -1.0090 O   0  0  0  0  0  0  0  0  0  0  0  0
   -1.6230   -9.3430    2.1550 F   0  0  0  0  0  0  0  0  0  0  0  0
    6.4680   -8.8490    0.4020 C   0  0  0  0  0  0  0  0  0  0  0  0
    5.8550   -9.2350   -0.4070 H   0  0  0  0  0  0  0  0  0  0  0  0
    7.1280   -9.7340    1.2550 C   0  0  0  0  0  0  0  0  0  0  0  0
    7.0150  -10.8070    1.1170 H   0  0  0  0  0  0  0  0  0  0  0  0
    7.9380   -9.2430    2.2810 C   0  0  0  0  0  0  0  0  0  0  0  0
    8.4550   -9.9350    2.9420 H   0  0  0  0  0  0  0  0  0  0  0  0
    8.0960   -7.8660    2.4560 C   0  0  0  0  0  0  0  0  0  0  0  0
    8.7380   -7.4900    3.2490 H   0  0  0  0  0  0  0  0  0  0  0  0
    7.4380   -6.9750    1.6090 C   0  0  0  0  0  0  0  0  0  0  0  0
    7.5690   -5.9030    1.7370 H   0  0  0  0  0  0  0  0  0  0  0  0
   -2.3750  -13.8460   -1.1750 C   0  0  0  0  0  0  0  0  0  0  0  0
   -3.5300  -14.5900   -1.2210 N   0  0  0  0  0  0  0  0  0  0  0  0
   -3.4670  -15.4760   -1.7060 H   0  0  0  0  0  0  0  0  0  0  0  0
   -1.4060  -14.1610   -1.8670 O   0  0  0  0  0  0  0  0  0  0  0  0
   -4.7590  -14.2470   -0.7270 C   0  0  0  0  0  0  0  0  0  0  0  0
   -5.9580  -15.4400   -0.9420 S   0  0  0  0  0  0  0  0  0  0  0  0
   -7.1000  -14.4010   -0.1840 C   0  0  0  0  0  0  0  0  0  0  0  0
   -8.1250  -14.7170   -0.0620 H   0  0  0  0  0  0  0  0  0  0  0  0
   -6.4860  -13.2170    0.1780 C   0  0  0  0  0  0  0  0  0  0  0  0
   -5.1430  -13.1360   -0.1550 N   0  0  0  0  0  0  0  0  0  0  0  0
   -7.1470  -12.0980    0.8450 C   0  0  0  0  0  0  0  0  0  0  0  0
   -8.4250  -12.2050    1.4150 C   0  0  0  0  0  0  0  0  0  0  0  0
   -8.9820  -13.1370    1.3910 H   0  0  0  0  0  0  0  0  0  0  0  0
   -9.0190  -11.1060    2.0490 C   0  0  0  0  0  0  0  0  0  0  0  0
  -10.0100  -11.2020    2.4870 H   0  0  0  0  0  0  0  0  0  0  0  0
   -8.3440   -9.8900    2.1230 C   0  0  0  0  0  0  0  0  0  0  0  0
   -8.8060   -9.0390    2.6160 H   0  0  0  0  0  0  0  0  0  0  0  0
   -7.0730   -9.7680    1.5670 C   0  0  0  0  0  0  0  0  0  0  0  0
   -6.5400   -8.8230    1.6230 H   0  0  0  0  0  0  0  0  0  0  0  0
   -6.4810  -10.8640    0.9340 C   0  0  0  0  0  0  0  0  0  0  0  0
   -5.4870  -10.7430    0.5050 H   0  0  0  0  0  0  0  0  0  0  0  0
  1  2  1  0  0  0  0
  1  3  1  0  0  0  0
  1  8  2  0  0  0  0
  3  4  1  0  0  0  0
  3  5  2  0  0  0  0
  5  6  1  0  0  0  0
  5 46  1  0  0  0  0
  6  7  2  0  0  0  0
  6  9  1  0  0  0  0
  7  8  1  0  0  0  0
  7 13  1  0  0  0  0
  8 35  1  0  0  0  0
  9 10  1  0  0  0  0
  9 11  1  0  0  0  0
 11 12  1  0  0  0  0
 11 13  2  0  0  0  0
 13 14  1  0  0  0  0
 14 15  1  0  0  0  0
 14 32  2  0  0  0  0
 15 16  1  0  0  0  0
 15 33  2  0  0  0  0
 16 17  1  0  0  0  0
 16 27  1  0  0  0  0
 17 18  1  0  0  0  0
 17 19  1  0  0  0  0
 17 20  1  0  0  0  0
 20 21  1  0  0  0  0
 20 22  1  0  0  0  0
 20 23  1  0  0  0  0
 23 24  1  0  0  0  0
 23 30  1  0  0  0  0
 24 25  1  0  0  0  0
 24 26  1  0  0  0  0
 24 27  1  0  0  0  0
 27 28  1  0  0  0  0
 27 29  1  0  0  0  0
 30 31  1  0  0  0  0
 30 34  2  0  0  0  0
 31 36  1  0  0  0  0
 31 44  2  0  0  0  0
 36 37  1  0  0  0  0
 36 38  2  0  0  0  0
 38 39  1  0  0  0  0
 38 40  1  0  0  0  0
 40 41  1  0  0  0  0
 40 42  2  0  0  0  0
 42 43  1  0  0  0  0
 42 44  1  0  0  0  0
 44 45  1  0  0  0  0
 46 47  1  0  0  0  0
 46 49  2  0  0  0  0
 47 48  1  0  0  0  0
 47 50  1  0  0  0  0
 50 51  1  0  0  0  0
 50 55  2  0  0  0  0
 51 52  1  0  0  0  0
 52 53  1  0  0  0  0
 52 54  2  0  0  0  0
 54 55  1  0  0  0  0
 54 56  1  0  0  0  0
 56 57  1  0  0  0  0
 56 65  2  0  0  0  0
 57 58  1  0  0  0  0
 57 59  2  0  0  0  0
 59 60  1  0  0  0  0
 59 61  1  0  0  0  0
 61 62  1  0  0  0  0
 61 63  2  0  0  0  0
 63 64  1  0  0  0  0
 63 65  1  0  0  0  0
 65 66  1  0  0  0  0
M  END
>  <Activity>
9.6777

>  <AM1_dipole>
7.28428

>  <AM1_E>
-168150

>  <AM1_Eele>
-1.48518e+006

>  <AM1_HF>
2.61303

>  <AM1_HOMO>
-8.94189

>  <AM1_IP>
8.94189

>  <AM1_LUMO>
-0.97808

>  <diameter>
23

>  <petitjean>
0.478261

>  <petitjeanSC>
0.916667

>  <radius>
12

>  <VDistEq>
4.2187

>  <VDistMa>
10.4612

>  <weinerPath>
7068

>  <weinerPol>
71

>  <BCUT_PEOE_0>
-2.71188

>  <BCUT_PEOE_1>
-0.643254

>  <BCUT_PEOE_2>
0.698507

>  <BCUT_PEOE_3>
2.65031

>  <BCUT_SLOGP_0>
-2.86001

>  <BCUT_SLOGP_1>
-0.53808

>  <BCUT_SLOGP_2>
0.805915

>  <BCUT_SLOGP_3>
2.50337

>  <BCUT_SMR_0>
-2.43203

>  <BCUT_SMR_1>
-0.457728

>  <BCUT_SMR_2>
0.854311

>  <BCUT_SMR_3>
2.92027

>  <GCUT_PEOE_0>
-0.857892

>  <GCUT_PEOE_1>
-0.417134

>  <GCUT_PEOE_2>
0.0833976

>  <GCUT_PEOE_3>
2.73499

>  <GCUT_SLOGP_0>
-0.993292

>  <GCUT_SLOGP_1>
-0.314341

>  <GCUT_SLOGP_2>
0.182402

>  <GCUT_SLOGP_3>
2.74465

>  <GCUT_SMR_0>
-0.508916

>  <GCUT_SMR_1>
-0.216057

>  <GCUT_SMR_2>
0.218362

>  <GCUT_SMR_3>
3.01746

>  <a_aro>
26

>  <a_count>
66

>  <a_IC>
115.701

>  <a_ICM>
1.75305

>  <a_nH>
24

>  <b_1rotN>
8

>  <b_1rotR>
0.170213

>  <b_ar>
27

>  <b_count>
71

>  <b_double>
4

>  <b_rotN>
9

>  <b_rotR>
0.191489

>  <b_single>
40

>  <b_triple>
0

>  <chi0v>
22.9887

>  <chi0v_C>
17.4113

>  <chi1v>
14.0824

>  <chi1v_C>
8.5594

>  <chiral>
0

>  <chiral_u>
0

>  <nmol>
1

>  <reactive>
0

>  <rings>
6

>  <Weight>
581.628

>  <a_heavy>
42

>  <a_nB>
0

>  <a_nBr>
0

>  <a_nC>
31

>  <a_nCl>
0

>  <a_nF>
1

>  <a_nI>
0

>  <a_nN>
5

>  <a_nO>
4

>  <a_nP>
0

>  <a_nS>
1

>  <b_heavy>
47

>  <chi0>
29.2166

>  <chi0_C>
20.2335

>  <chi1>
20.4019

>  <chi1_C>
11.766

>  <FCharge>
0

>  <VAdjEq>
0.300203

>  <VAdjMa>
6.55459

>  <zagreb>
228

>  <balabanJ>
1.00155

>  <PEOE_PC+>
3.59435

>  <PEOE_PC->
-3.59435

>  <PEOE_RPC+>
0.0821013

>  <PEOE_RPC->
0.099958

>  <PEOE_VSA+0>
73.9323

>  <PEOE_VSA+1>
124.821

>  <PEOE_VSA+2>
9.02085

>  <PEOE_VSA+3>
36.9986

>  <PEOE_VSA+4>
0

>  <PEOE_VSA+5>
47.3071

>  <PEOE_VSA+6>
0

>  <PEOE_VSA-0>
51.2282

>  <PEOE_VSA-1>
112.27

>  <PEOE_VSA-2>
0

>  <PEOE_VSA-3>
0

>  <PEOE_VSA-4>
17.5912

>  <PEOE_VSA-5>
54.2677

>  <PEOE_VSA-6>
0.273782

>  <PEOE_VSA_FHYD>
0.773664

>  <PEOE_VSA_FNEG>
0.446515

>  <PEOE_VSA_FPNEG>
0.13669

>  <PEOE_VSA_FPOL>
0.226336

>  <PEOE_VSA_FPOS>
0.553485

>  <PEOE_VSA_FPPOS>
0.0896458

>  <PEOE_VSA_HYD>
408.271

>  <PEOE_VSA_NEG>
235.631

>  <PEOE_VSA_PNEG>
72.1327

>  <PEOE_VSA_POL>
119.44

>  <PEOE_VSA_POS>
292.08

>  <PEOE_VSA_PPOS>
47.3071

>  <PC+>
7.378

>  <PC->
-7.379

>  <Q_PC+>
7.378

>  <Q_PC->
-7.379

>  <Q_RPC+>
0.088913

>  <Q_RPC->
0.089443

>  <Q_VSA_FHYD>
0.607145

>  <Q_VSA_FNEG>
0.52813

>  <Q_VSA_FPNEG>
0.145597

>  <Q_VSA_FPOL>
0.392855

>  <Q_VSA_FPOS>
0.47187

>  <Q_VSA_FPPOS>
0.247258

>  <Q_VSA_HYD>
320.397

>  <Q_VSA_NEG>
278.7

>  <Q_VSA_PNEG>
76.8331

>  <Q_VSA_POL>
207.314

>  <Q_VSA_POS>
249.011

>  <Q_VSA_PPOS>
130.481

>  <RPC+>
0.088913

>  <RPC->
0.089443

>  <lip_acc>
9

>  <lip_don>
2

>  <lip_druglike>
1

>  <lip_violation>
1

>  <opr_brigid>
33

>  <opr_leadlike>
0

>  <opr_nring>
6

>  <opr_nrot>
8

>  <opr_violation>
4

>  <E>
121.123

>  <E_ang>
18.7157

>  <E_ele>
16.1904

>  <E_nb>
82.8064

>  <E_oop>
0.21124

>  <E_sol>
-22.6393

>  <E_stb>
0.691274

>  <E_str>
8.80464

>  <E_strain>
0.007008

>  <E_tor>
9.8935

>  <E_vdw>
66.616

>  <E_rele>
0

>  <E_rnb>
-2.84217e-014

>  <E_rsol>
-2.84217e-014

>  <E_rvdw>
0

>  <Kier1>
31.9611

>  <Kier2>
14.6135

>  <Kier3>
7.21471

>  <KierA1>
22.4347

>  <KierA2>
10.1625

>  <KierA3>
4.98474

>  <KierFlex>
5.42841

>  <logS>
-8.16111

>  <MNDO_dipole>
6.88747

>  <MNDO_E>
-169084

>  <MNDO_Eele>
-1.48135e+006

>  <MNDO_HF>
-32.9686

>  <MNDO_HOMO>
-9.08657

>  <MNDO_IP>
9.08657

>  <MNDO_LUMO>
-0.89464

>  <apol>
82.728

>  <bpol>
40.152

>  <mr>
15.9191

>  <dipole>
2.07562

>  <dipoleX>
-0.811919

>  <dipoleY>
-1.86203

>  <dipoleZ>
0.426436

>  <pmi>
20368

>  <pmiX>
14325.2

>  <pmiY>
4908.93

>  <pmiZ>
1133.87

>  <rgyr>
5.91768

>  <a_acc>
5

>  <a_acid>
0

>  <a_base>
0

>  <a_don>
2

>  <a_hyd>
28

>  <vsa_acc>
59.9503

>  <vsa_acid>
0

>  <vsa_base>
0

>  <vsa_don>
11.3652

>  <vsa_hyd>
374.116

>  <vsa_other>
60.4737

>  <vsa_pol>
71.3154

>  <PM3_dipole>
6.34762

>  <PM3_E>
-153411

>  <PM3_Eele>
-1.46702e+006

>  <PM3_HF>
-39.7974

>  <PM3_HOMO>
-9.03095

>  <PM3_IP>
9.03095

>  <PM3_LUMO>
-1.17735

>  <SlogP>
4.8501

>  <SlogP_VSA0>
0

>  <SlogP_VSA1>
62.5089

>  <SlogP_VSA2>
49.7688

>  <SlogP_VSA3>
73.7583

>  <SlogP_VSA4>
81.1434

>  <SlogP_VSA5>
0

>  <SlogP_VSA6>
0

>  <SlogP_VSA7>
255.408

>  <SlogP_VSA8>
0

>  <SlogP_VSA9>
46.7385

>  <SMR>
15.7016

>  <SMR_VSA0>
95.4489

>  <SMR_VSA1>
37.9943

>  <SMR_VSA2>
25.9065

>  <SMR_VSA3>
9.55672

>  <SMR_VSA4>
29.1709

>  <SMR_VSA5>
244.749

>  <SMR_VSA6>
95.2223

>  <SMR_VSA7>
31.2777

>  <ASA>
862.587

>  <ASA+>
359.167

>  <ASA->
404.089

>  <ASA_H>
643.235

>  <ASA_P>
219.352

>  <CASA+>
2649.93

>  <CASA->
2981.77

>  <DASA>
44.9223

>  <DCASA>
331.841

>  <FASA+>
0.416384

>  <FASA->
0.468462

>  <FASA_H>
0.745705

>  <FASA_P>
0.254295

>  <FCASA+>
3.07208

>  <FCASA->
3.45678

>  <VSA>
562.302

>  <TPSA>
115.47

>  <density>
0.795685

>  <vdw_area>
527.711

>  <vdw_vol>
730.978

>  <vsurf_A>
2.91928

>  <vsurf_CP>
0.0882174

>  <vsurf_CW1>
2.55721

>  <vsurf_CW2>
2.11405

>  <vsurf_CW3>
1.34006

>  <vsurf_CW4>
0.663141

>  <vsurf_CW5>
0.312548

>  <vsurf_CW6>
0.113978

>  <vsurf_CW7>
0.0229304

>  <vsurf_CW8>
0.00381985

>  <vsurf_D1>
1232.75

>  <vsurf_D2>
740.5

>  <vsurf_D3>
544.875

>  <vsurf_D4>
455.125

>  <vsurf_D5>
389.875

>  <vsurf_D6>
323.75

>  <vsurf_D7>
202.25

>  <vsurf_D8>
118

>  <vsurf_DD12>
0.5

>  <vsurf_DD13>
0.5

>  <vsurf_DD23>
0.707107

>  <vsurf_DW12>
0.5

>  <vsurf_DW13>
0.866025

>  <vsurf_DW23>
0.707107

>  <vsurf_EDmin1>
-3.0295

>  <vsurf_EDmin2>
-2.86634

>  <vsurf_EDmin3>
-2.86594

>  <vsurf_EWmin1>
-6.4915

>  <vsurf_EWmin2>
-6.48237

>  <vsurf_EWmin3>
-6.3444

>  <vsurf_G>
1.45938

>  <vsurf_HB1>
400.375

>  <vsurf_HB2>
457.25

>  <vsurf_HB3>
424

>  <vsurf_HB4>
192.5

>  <vsurf_HB5>
72.75

>  <vsurf_HB6>
23.625

>  <vsurf_HB7>
5.25

>  <vsurf_HB8>
0.75

>  <vsurf_HL1>
0.152558

>  <vsurf_HL2>
0.0571272

>  <vsurf_ID1>
0.985235

>  <vsurf_ID2>
0.951824

>  <vsurf_ID3>
0.962367

>  <vsurf_ID4>
1.0753

>  <vsurf_ID5>
1.18142

>  <vsurf_ID6>
1.27537

>  <vsurf_ID7>
1.53684

>  <vsurf_ID8>
1.65714

>  <vsurf_IW1>
0.317175

>  <vsurf_IW2>
0.983873

>  <vsurf_IW3>
1.53546

>  <vsurf_IW4>
1.80397

>  <vsurf_IW5>
2.06483

>  <vsurf_IW6>
2.50405

>  <vsurf_IW7>
4.99382

>  <vsurf_IW8>
7.47792

>  <vsurf_R>
1.49851

>  <vsurf_S>
789.367

>  <vsurf_V>
1182.88

>  <vsurf_W1>
1893.13

>  <vsurf_W2>
1145.63

>  <vsurf_W3>
592.75

>  <vsurf_W4>
221.375

>  <vsurf_W5>
83.125

>  <vsurf_W6>
26

>  <vsurf_W7>
5.25

>  <vsurf_W8>
0.75

>  <vsurf_Wp1>
1492.75

>  <vsurf_Wp2>
688.375

>  <vsurf_Wp3>
168.75

>  <vsurf_Wp4>
28.875

>  <vsurf_Wp5>
10.375

>  <vsurf_Wp6>
2.375

>  <vsurf_Wp7>
0

>  <vsurf_Wp8>
0

>  <dens>
1.1161

>  <glob>
0.080923

>  <std_dim1>
5.66852

>  <std_dim2>
1.98321

>  <std_dim3>
1.61252

>  <vol>
521.125

>  <logP(o/w)>
4.086

$$$$
D12.cdx
  MOE2008           3D

 58 62  0  0  0  0  0  0  0  0999 V2000
   -3.9910  -15.3280   -2.2950 C   0  0  0  0  0  0  0  0  0  0  0  0
   -4.7850  -15.1990   -3.0260 H   0  0  0  0  0  0  0  0  0  0  0  0
   -4.2740  -15.8540   -1.0360 C   0  0  0  0  0  0  0  0  0  0  0  0
   -5.2980  -16.1480   -0.8190 H   0  0  0  0  0  0  0  0  0  0  0  0
   -3.2650  -16.0110   -0.0720 C   0  0  0  0  0  0  0  0  0  0  0  0
   -1.9500  -15.6930   -0.4700 C   0  0  0  0  0  0  0  0  0  0  0  0
   -1.6280  -15.1660   -1.7240 C   0  0  0  0  0  0  0  0  0  0  0  0
   -2.6850  -14.9720   -2.6390 C   0  0  0  0  0  0  0  0  0  0  0  0
   -0.7680  -15.8360    0.2230 N   0  0  0  0  0  0  0  0  0  0  0  0
   -0.7100  -16.2220    1.1590 H   0  0  0  0  0  0  0  0  0  0  0  0
    0.2830  -15.3960   -0.5330 C   0  0  0  0  0  0  0  0  0  0  0  0
    1.2880  -15.4360   -0.1330 H   0  0  0  0  0  0  0  0  0  0  0  0
   -0.2040  -14.9580   -1.7520 C   0  0  0  0  0  0  0  0  0  0  0  0
    0.6100  -14.4030   -2.8290 C   0  0  0  0  0  0  0  0  0  0  0  0
    2.1290  -14.4660   -2.7530 C   0  0  0  0  0  0  0  0  0  0  0  0
    2.7780  -13.3800   -2.1670 N   0  0  0  0  0  0  0  0  0  0  0  0
    4.2320  -13.4130   -2.0130 C   0  0  0  0  0  0  0  0  0  0  0  0
    4.5910  -14.4480   -2.0180 H   0  0  0  0  0  0  0  0  0  0  0  0
    4.6540  -12.9140   -2.8940 H   0  0  0  0  0  0  0  0  0  0  0  0
    4.6870  -12.7030   -0.7350 C   0  0  0  0  0  0  0  0  0  0  0  0
    5.7800  -12.7000   -0.6770 H   0  0  0  0  0  0  0  0  0  0  0  0
    4.2980  -13.2400    0.1380 H   0  0  0  0  0  0  0  0  0  0  0  0
    4.1830  -11.3230   -0.6450 N   0  0  0  0  0  0  0  0  0  0  0  0
    3.0190  -10.9900   -1.4710 C   0  0  0  0  0  0  0  0  0  0  0  0
    2.4680  -10.1530   -1.0290 H   0  0  0  0  0  0  0  0  0  0  0  0
    3.4120  -10.6500   -2.4370 H   0  0  0  0  0  0  0  0  0  0  0  0
    2.0820  -12.1820   -1.6790 C   0  0  0  0  0  0  0  0  0  0  0  0
    1.2820  -11.9120   -2.3750 H   0  0  0  0  0  0  0  0  0  0  0  0
    1.6170  -12.4580   -0.7250 H   0  0  0  0  0  0  0  0  0  0  0  0
    4.7480  -10.3190    0.1390 C   0  0  0  0  0  0  0  0  0  0  0  0
    5.8640  -10.6660    1.0480 C   0  0  0  0  0  0  0  0  0  0  0  0
    0.1360  -13.8580   -3.8210 O   0  0  0  0  0  0  0  0  0  0  0  0
    2.6810  -15.4670   -3.1980 O   0  0  0  0  0  0  0  0  0  0  0  0
    4.3890   -9.1450    0.1170 O   0  0  0  0  0  0  0  0  0  0  0  0
   -2.4750  -14.4790   -3.8670 F   0  0  0  0  0  0  0  0  0  0  0  0
    7.0990  -10.0360    0.8640 C   0  0  0  0  0  0  0  0  0  0  0  0
    7.2370   -9.3200    0.0570 H   0  0  0  0  0  0  0  0  0  0  0  0
    8.1560  -10.3300    1.7240 C   0  0  0  0  0  0  0  0  0  0  0  0
    9.1200   -9.8470    1.5860 H   0  0  0  0  0  0  0  0  0  0  0  0
    7.9740  -11.2380    2.7690 C   0  0  0  0  0  0  0  0  0  0  0  0
    8.7990  -11.4620    3.4410 H   0  0  0  0  0  0  0  0  0  0  0  0
    6.7330  -11.8480    2.9630 C   0  0  0  0  0  0  0  0  0  0  0  0
    6.5950  -12.5420    3.7890 H   0  0  0  0  0  0  0  0  0  0  0  0
    5.6700  -11.5590    2.1070 C   0  0  0  0  0  0  0  0  0  0  0  0
    4.7000  -12.0180    2.2770 H   0  0  0  0  0  0  0  0  0  0  0  0
   -3.5550  -16.6020    1.2600 C   0  0  0  0  0  0  0  0  0  0  0  0
   -4.7780  -16.3820    1.8900 N   0  0  0  0  0  0  0  0  0  0  0  0
   -5.0670  -17.1510    2.4810 H   0  0  0  0  0  0  0  0  0  0  0  0
   -2.6790  -17.2780    1.7980 O   0  0  0  0  0  0  0  0  0  0  0  0
   -5.6560  -15.3240    1.9650 C   0  0  0  0  0  0  0  0  0  0  0  0
   -5.2410  -13.7450    1.3880 S   0  0  0  0  0  0  0  0  0  0  0  0
   -6.9740  -13.2650    1.4970 C   0  0  0  0  0  0  0  0  0  0  0  0
   -7.1000  -12.2090    1.7510 H   0  0  0  0  0  0  0  0  0  0  0  0
   -7.4600  -13.4670    0.5370 H   0  0  0  0  0  0  0  0  0  0  0  0
   -7.5070  -14.1910    2.5800 C   0  0  0  0  0  0  0  0  0  0  0  0
   -8.5820  -14.3510    2.4420 H   0  0  0  0  0  0  0  0  0  0  0  0
   -7.3700  -13.7520    3.5760 H   0  0  0  0  0  0  0  0  0  0  0  0
   -6.8020  -15.4890    2.5300 N   0  0  0  0  0  0  0  0  0  0  0  0
  1  2  1  0  0  0  0
  1  3  1  0  0  0  0
  1  8  2  0  0  0  0
  3  4  1  0  0  0  0
  3  5  2  0  0  0  0
  5  6  1  0  0  0  0
  5 46  1  0  0  0  0
  6  7  2  0  0  0  0
  6  9  1  0  0  0  0
  7  8  1  0  0  0  0
  7 13  1  0  0  0  0
  8 35  1  0  0  0  0
  9 10  1  0  0  0  0
  9 11  1  0  0  0  0
 11 12  1  0  0  0  0
 11 13  2  0  0  0  0
 13 14  1  0  0  0  0
 14 15  1  0  0  0  0
 14 32  2  0  0  0  0
 15 16  1  0  0  0  0
 15 33  2  0  0  0  0
 16 17  1  0  0  0  0
 16 27  1  0  0  0  0
 17 18  1  0  0  0  0
 17 19  1  0  0  0  0
 17 20  1  0  0  0  0
 20 21  1  0  0  0  0
 20 22  1  0  0  0  0
 20 23  1  0  0  0  0
 23 24  1  0  0  0  0
 23 30  1  0  0  0  0
 24 25  1  0  0  0  0
 24 26  1  0  0  0  0
 24 27  1  0  0  0  0
 27 28  1  0  0  0  0
 27 29  1  0  0  0  0
 30 31  1  0  0  0  0
 30 34  2  0  0  0  0
 31 36  1  0  0  0  0
 31 44  2  0  0  0  0
 36 37  1  0  0  0  0
 36 38  2  0  0  0  0
 38 39  1  0  0  0  0
 38 40  1  0  0  0  0
 40 41  1  0  0  0  0
 40 42  2  0  0  0  0
 42 43  1  0  0  0  0
 42 44  1  0  0  0  0
 44 45  1  0  0  0  0
 46 47  1  0  0  0  0
 46 49  2  0  0  0  0
 47 48  1  0  0  0  0
 47 50  1  0  0  0  0
 50 51  1  0  0  0  0
 50 58  2  0  0  0  0
 51 52  1  0  0  0  0
 52 53  1  0  0  0  0
 52 54  1  0  0  0  0
 52 55  1  0  0  0  0
 55 56  1  0  0  0  0
 55 57  1  0  0  0  0
 55 58  1  0  0  0  0
M  END
>  <Activity>
10.6989

>  <AM1_dipole>
3.6711

>  <AM1_E>
-149819

>  <AM1_Eele>
-1.23172e+006

>  <AM1_HF>
-38.7785

>  <AM1_HOMO>
-9.02328

>  <AM1_IP>
9.02328

>  <AM1_LUMO>
-1.04724

>  <diameter>
19

>  <petitjean>
0.473684

>  <petitjeanSC>
0.9

>  <radius>
10

>  <VDistEq>
3.98009

>  <VDistMa>
10.023

>  <weinerPath>
4461

>  <weinerPol>
60

>  <BCUT_PEOE_0>
-2.71188

>  <BCUT_PEOE_1>
-0.634322

>  <BCUT_PEOE_2>
0.600328

>  <BCUT_PEOE_3>
2.65031

>  <BCUT_SLOGP_0>
-2.86001

>  <BCUT_SLOGP_1>
-0.53808

>  <BCUT_SLOGP_2>
0.749763

>  <BCUT_SLOGP_3>
2.50336

>  <BCUT_SMR_0>
-2.43203

>  <BCUT_SMR_1>
-0.415151

>  <BCUT_SMR_2>
0.792398

>  <BCUT_SMR_3>
2.92027

>  <GCUT_PEOE_0>
-0.857809

>  <GCUT_PEOE_1>
-0.409137

>  <GCUT_PEOE_2>
0.080099

>  <GCUT_PEOE_3>
2.72017

>  <GCUT_SLOGP_0>
-1.16795

>  <GCUT_SLOGP_1>
-0.350352

>  <GCUT_SLOGP_2>
0.170648

>  <GCUT_SLOGP_3>
2.70102

>  <GCUT_SMR_0>
-0.508916

>  <GCUT_SMR_1>
-0.21425

>  <GCUT_SMR_2>
0.224724

>  <GCUT_SMR_3>
2.99806

>  <a_aro>
15

>  <a_count>
58

>  <a_IC>
105.949

>  <a_ICM>
1.82671

>  <a_nH>
22

>  <b_1rotN>
6

>  <b_1rotR>
0.15

>  <b_ar>
16

>  <b_count>
62

>  <b_double>
5

>  <b_rotN>
8

>  <b_rotR>
0.2

>  <b_single>
41

>  <b_triple>
0

>  <chi0v>
19.9388

>  <chi0v_C>
14.3614

>  <chi1v>
12.3846

>  <chi1v_C>
6.61004

>  <chiral>
0

>  <chiral_u>
0

>  <nmol>
1

>  <reactive>
0

>  <rings>
5

>  <Weight>
507.546

>  <a_heavy>
36

>  <a_nB>
0

>  <a_nBr>
0

>  <a_nC>
25

>  <a_nCl>
0

>  <a_nF>
1

>  <a_nI>
0

>  <a_nN>
5

>  <a_nO>
4

>  <a_nP>
0

>  <a_nS>
1

>  <b_heavy>
40

>  <chi0>
25.2335

>  <chi0_C>
16.2503

>  <chi1>
17.4356

>  <chi1_C>
8.70791

>  <FCharge>
0

>  <VAdjEq>
0.334268

>  <VAdjMa>
6.32193

>  <zagreb>
194

>  <balabanJ>
1.15052

>  <PEOE_PC+>
3.31188

>  <PEOE_PC->
-3.31188

>  <PEOE_RPC+>
0.0891035

>  <PEOE_RPC->
0.108483

>  <PEOE_VSA+0>
93.1404

>  <PEOE_VSA+1>
101.086

>  <PEOE_VSA+2>
9.02085

>  <PEOE_VSA+3>
30.4046

>  <PEOE_VSA+4>
0

>  <PEOE_VSA+5>
47.3071

>  <PEOE_VSA+6>
0

>  <PEOE_VSA-0>
49.0196

>  <PEOE_VSA-1>
56.5253

>  <PEOE_VSA-2>
0

>  <PEOE_VSA-3>
0

>  <PEOE_VSA-4>
11.9086

>  <PEOE_VSA-5>
59.9503

>  <PEOE_VSA-6>
0.273782

>  <PEOE_VSA_FHYD>
0.739576

>  <PEOE_VSA_FNEG>
0.387404

>  <PEOE_VSA_FPNEG>
0.157276

>  <PEOE_VSA_FPOL>
0.260424

>  <PEOE_VSA_FPOS>
0.612596

>  <PEOE_VSA_FPPOS>
0.103147

>  <PEOE_VSA_HYD>
339.197

>  <PEOE_VSA_NEG>
177.678

>  <PEOE_VSA_PNEG>
72.1327

>  <PEOE_VSA_POL>
119.44

>  <PEOE_VSA_POS>
280.959

>  <PEOE_VSA_PPOS>
47.3071

>  <PC+>
6.936

>  <PC->
-6.937

>  <Q_PC+>
6.936

>  <Q_PC->
-6.937

>  <Q_RPC+>
0.094579

>  <Q_RPC->
0.100332

>  <Q_VSA_FHYD>
0.452847

>  <Q_VSA_FNEG>
0.443041

>  <Q_VSA_FPNEG>
0.210611

>  <Q_VSA_FPOL>
0.547153

>  <Q_VSA_FPOS>
0.556959

>  <Q_VSA_FPPOS>
0.336543

>  <Q_VSA_HYD>
207.692

>  <Q_VSA_NEG>
203.195

>  <Q_VSA_PNEG>
96.5937

>  <Q_VSA_POL>
250.944

>  <Q_VSA_POS>
255.442

>  <Q_VSA_PPOS>
154.351

>  <RPC+>
0.094579

>  <RPC->
0.100332

>  <lip_acc>
9

>  <lip_don>
2

>  <lip_druglike>
1

>  <lip_violation>
1

>  <opr_brigid>
27

>  <opr_leadlike>
0

>  <opr_nring>
5

>  <opr_nrot>
7

>  <opr_violation>
3

>  <E>
98.4407

>  <E_ang>
19.9326

>  <E_ele>
5.54934

>  <E_nb>
57.0318

>  <E_oop>
0.366813

>  <E_sol>
-23.1685

>  <E_stb>
0.365208

>  <E_str>
7.17596

>  <E_strain>
0.0054802

>  <E_tor>
13.5683

>  <E_vdw>
51.4825

>  <E_rele>
0

>  <E_rnb>
8.52651e-014

>  <E_rsol>
8.52651e-014

>  <E_rvdw>
0

>  <Kier1>
27.5625

>  <Kier2>
12.4531

>  <Kier3>
6.11248

>  <KierA1>
20.0435

>  <KierA2>
8.96751

>  <KierA3>
4.37143

>  <KierFlex>
4.99279

>  <logS>
-6.14946

>  <MNDO_dipole>
4.84723

>  <MNDO_E>
-150774

>  <MNDO_Eele>
-1.21478e+006

>  <MNDO_HF>
-73.658

>  <MNDO_HOMO>
-9.22376

>  <MNDO_IP>
9.22376

>  <MNDO_LUMO>
-1.10076

>  <apol>
70.8344

>  <bpol>
37.9656

>  <mr>
13.4058

>  <dipole>
1.23718

>  <dipoleX>
-0.327475

>  <dipoleY>
-0.219507

>  <dipoleZ>
1.17269

>  <pmi>
14944.1

>  <pmiX>
10554.3

>  <pmiY>
2286.6

>  <pmiZ>
2103.18

>  <rgyr>
5.42622

>  <a_acc>
5

>  <a_acid>
0

>  <a_base>
0

>  <a_don>
2

>  <a_hyd>
22

>  <vsa_acc>
59.9503

>  <vsa_acid>
0

>  <vsa_base>
0

>  <vsa_don>
11.3652

>  <vsa_hyd>
306.465

>  <vsa_other>
60.4737

>  <vsa_pol>
71.3154

>  <PM3_dipole>
5.60524

>  <PM3_E>
-136327

>  <PM3_Eele>
-1.20131e+006

>  <PM3_HF>
-78.2226

>  <PM3_HOMO>
-9.09237

>  <PM3_IP>
9.09237

>  <PM3_LUMO>
-1.02707

>  <SlogP>
2.3069

>  <SlogP_VSA0>
18.0107

>  <SlogP_VSA1>
28.4057

>  <SlogP_VSA2>
49.7688

>  <SlogP_VSA3>
109.431

>  <SlogP_VSA4>
81.1434

>  <SlogP_VSA5>
16.7855

>  <SlogP_VSA6>
0

>  <SlogP_VSA7>
145.434

>  <SlogP_VSA8>
0

>  <SlogP_VSA9>
47.1797

>  <SMR>
13.374

>  <SMR_VSA0>
95.4489

>  <SMR_VSA1>
37.9943

>  <SMR_VSA2>
43.9173

>  <SMR_VSA3>
9.55672

>  <SMR_VSA4>
4.7171

>  <SMR_VSA5>
140.717

>  <SMR_VSA6>
131.589

>  <SMR_VSA7>
32.2195

>  <ASA>
761.199

>  <ASA+>
274.324

>  <ASA->
298.849

>  <ASA_H>
483.535

>  <ASA_P>
277.664

>  <CASA+>
1902.71

>  <CASA->
2073.11

>  <DASA>
24.5241

>  <DCASA>
170.398

>  <FASA+>
0.360384

>  <FASA->
0.392602

>  <FASA_H>
0.635228

>  <FASA_P>
0.364772

>  <FCASA+>
2.49963

>  <FCASA->
2.72348

>  <VSA>
482.81

>  <TPSA>
114.94

>  <density>
0.816114

>  <vdw_area>
458.637

>  <vdw_vol>
621.906

>  <vsurf_A>
3.46071

>  <vsurf_CP>
0.0663607

>  <vsurf_CW1>
2.64452

>  <vsurf_CW2>
2.18422

>  <vsurf_CW3>
1.54355

>  <vsurf_CW4>
0.813595

>  <vsurf_CW5>
0.392239

>  <vsurf_CW6>
0.177212

>  <vsurf_CW7>
0.0523544

>  <vsurf_CW8>
0.0175779

>  <vsurf_D1>
998.5

>  <vsurf_D2>
588

>  <vsurf_D3>
436.375

>  <vsurf_D4>
367.5

>  <vsurf_D5>
314.375

>  <vsurf_D6>
253

>  <vsurf_D7>
145.625

>  <vsurf_D8>
84.75

>  <vsurf_DD12>
0.5

>  <vsurf_DD13>
0.866025

>  <vsurf_DD23>
0.707107

>  <vsurf_DW12>
0.5

>  <vsurf_DW13>
0.707107

>  <vsurf_DW23>
0.5

>  <vsurf_EDmin1>
-2.91712

>  <vsurf_EDmin2>
-2.83652

>  <vsurf_EDmin3>
-2.83279

>  <vsurf_EWmin1>
-7.29281

>  <vsurf_EWmin2>
-7.03243

>  <vsurf_EWmin3>
-6.98837

>  <vsurf_G>
1.41887

>  <vsurf_HB1>
446.875

>  <vsurf_HB2>
547.375

>  <vsurf_HB3>
478.75

>  <vsurf_HB4>
216

>  <vsurf_HB5>
89.75

>  <vsurf_HB6>
36.375

>  <vsurf_HB7>
10.875

>  <vsurf_HB8>
3.125

>  <vsurf_HL1>
0.229447

>  <vsurf_HL2>
0.104422

>  <vsurf_ID1>
1.21144

>  <vsurf_ID2>
1.16597

>  <vsurf_ID3>
1.32373

>  <vsurf_ID4>
1.53635

>  <vsurf_ID5>
1.7529

>  <vsurf_ID6>
1.7414

>  <vsurf_ID7>
0.980959

>  <vsurf_ID8>
0.732479

>  <vsurf_IW1>
0.343833

>  <vsurf_IW2>
0.585833

>  <vsurf_IW3>
1.08315

>  <vsurf_IW4>
1.74742

>  <vsurf_IW5>
2.55789

>  <vsurf_IW6>
4.02451

>  <vsurf_IW7>
6.85833

>  <vsurf_IW8>
8.63295

>  <vsurf_R>
1.46919

>  <vsurf_S>
697.324

>  <vsurf_V>
1024.5

>  <vsurf_W1>
1756.75

>  <vsurf_W2>
1114.38

>  <vsurf_W3>
622.75

>  <vsurf_W4>
242.625

>  <vsurf_W5>
100.125

>  <vsurf_W6>
38.375

>  <vsurf_W7>
10.875

>  <vsurf_W8>
3.125

>  <vsurf_Wp1>
1309.88

>  <vsurf_Wp2>
567

>  <vsurf_Wp3>
144

>  <vsurf_Wp4>
26.625

>  <vsurf_Wp5>
10.375

>  <vsurf_Wp6>
2

>  <vsurf_Wp7>
0

>  <vsurf_Wp8>
0

>  <dens>
1.13513

>  <glob>
0.0771192

>  <std_dim1>
5.20212

>  <std_dim2>
2.09309

>  <std_dim3>
1.44465

>  <vol>
447.125

>  <logP(o/w)>
2.129

$$$$
D12.cdx
  MOE2008           3D

 56 60  0  0  0  0  0  0  0  0999 V2000
   -2.8210  -16.2140   -1.0500 C   0  0  0  0  0  0  0  0  0  0  0  0
   -3.4150  -15.4030   -1.4610 H   0  0  0  0  0  0  0  0  0  0  0  0
   -3.4280  -17.2220   -0.3070 C   0  0  0  0  0  0  0  0  0  0  0  0
   -4.5050  -17.1840   -0.1490 H   0  0  0  0  0  0  0  0  0  0  0  0
   -2.6840  -18.2870    0.2300 C   0  0  0  0  0  0  0  0  0  0  0  0
   -1.2940  -18.2790   -0.0120 C   0  0  0  0  0  0  0  0  0  0  0  0
   -0.6490  -17.2790   -0.7520 C   0  0  0  0  0  0  0  0  0  0  0  0
   -1.4440  -16.2360   -1.2750 C   0  0  0  0  0  0  0  0  0  0  0  0
   -0.3220  -19.1660    0.3940 N   0  0  0  0  0  0  0  0  0  0  0  0
   -0.5020  -19.9900    0.9530 H   0  0  0  0  0  0  0  0  0  0  0  0
    0.9040  -18.7720   -0.0630 C   0  0  0  0  0  0  0  0  0  0  0  0
    1.7800  -19.3680    0.1620 H   0  0  0  0  0  0  0  0  0  0  0  0
    0.7520  -17.6020   -0.7860 C   0  0  0  0  0  0  0  0  0  0  0  0
    1.8420  -16.8740   -1.4290 C   0  0  0  0  0  0  0  0  0  0  0  0
    3.2650  -17.3990   -1.3280 C   0  0  0  0  0  0  0  0  0  0  0  0
    4.1460  -16.6790   -0.5230 N   0  0  0  0  0  0  0  0  0  0  0  0
    5.5430  -17.1060   -0.4330 C   0  0  0  0  0  0  0  0  0  0  0  0
    5.6130  -17.7720    0.4350 H   0  0  0  0  0  0  0  0  0  0  0  0
    5.8190  -17.6870   -1.3190 H   0  0  0  0  0  0  0  0  0  0  0  0
    6.4920  -15.9160   -0.2640 C   0  0  0  0  0  0  0  0  0  0  0  0
    6.4410  -15.2800   -1.1550 H   0  0  0  0  0  0  0  0  0  0  0  0
    7.5220  -16.2720   -0.1560 H   0  0  0  0  0  0  0  0  0  0  0  0
    6.1360  -15.0710    0.8860 N   0  0  0  0  0  0  0  0  0  0  0  0
    4.7540  -15.1560    1.3650 C   0  0  0  0  0  0  0  0  0  0  0  0
    4.7350  -15.9470    2.1250 H   0  0  0  0  0  0  0  0  0  0  0  0
    4.4670  -14.2210    1.8570 H   0  0  0  0  0  0  0  0  0  0  0  0
    3.7620  -15.4860    0.2440 C   0  0  0  0  0  0  0  0  0  0  0  0
    3.7190  -14.6550   -0.4710 H   0  0  0  0  0  0  0  0  0  0  0  0
    2.7590  -15.6230    0.6590 H   0  0  0  0  0  0  0  0  0  0  0  0
    7.0200  -14.2290    1.5610 C   0  0  0  0  0  0  0  0  0  0  0  0
    8.3720  -14.0180    0.9940 C   0  0  0  0  0  0  0  0  0  0  0  0
    1.6920  -15.8280   -2.0540 O   0  0  0  0  0  0  0  0  0  0  0  0
    3.5450  -18.4150   -1.9550 O   0  0  0  0  0  0  0  0  0  0  0  0
    6.7540  -13.6520    2.6110 O   0  0  0  0  0  0  0  0  0  0  0  0
   -0.9140  -15.2370   -1.9940 F   0  0  0  0  0  0  0  0  0  0  0  0
    8.5300  -13.4520   -0.2750 C   0  0  0  0  0  0  0  0  0  0  0  0
    7.6650  -13.1660   -0.8680 H   0  0  0  0  0  0  0  0  0  0  0  0
    9.8130  -13.2410   -0.7790 C   0  0  0  0  0  0  0  0  0  0  0  0
    9.9450  -12.8070   -1.7660 H   0  0  0  0  0  0  0  0  0  0  0  0
   10.9300  -13.5770   -0.0100 C   0  0  0  0  0  0  0  0  0  0  0  0
   11.9290  -13.4070   -0.4030 H   0  0  0  0  0  0  0  0  0  0  0  0
   10.7670  -14.1170    1.2680 C   0  0  0  0  0  0  0  0  0  0  0  0
   11.6400  -14.3640    1.8670 H   0  0  0  0  0  0  0  0  0  0  0  0
    9.4870  -14.3330    1.7760 C   0  0  0  0  0  0  0  0  0  0  0  0
    9.3610  -14.7430    2.7750 H   0  0  0  0  0  0  0  0  0  0  0  0
   -3.3140  -19.3540    1.0110 C   0  0  0  0  0  0  0  0  0  0  0  0
   -3.8150  -19.0990    2.2970 C   0  0  0  0  0  0  0  0  0  0  0  0
   -3.7340  -18.1020    2.7260 H   0  0  0  0  0  0  0  0  0  0  0  0
   -4.4120  -20.1150    3.0460 C   0  0  0  0  0  0  0  0  0  0  0  0
   -4.7950  -19.9040    4.0410 H   0  0  0  0  0  0  0  0  0  0  0  0
   -4.5190  -21.4000    2.5170 C   0  0  0  0  0  0  0  0  0  0  0  0
   -4.9860  -22.1900    3.0990 H   0  0  0  0  0  0  0  0  0  0  0  0
   -4.0330  -21.6700    1.2400 C   0  0  0  0  0  0  0  0  0  0  0  0
   -4.1220  -22.6700    0.8240 H   0  0  0  0  0  0  0  0  0  0  0  0
   -3.4340  -20.6530    0.4920 C   0  0  0  0  0  0  0  0  0  0  0  0
   -3.0680  -20.8790   -0.5080 H   0  0  0  0  0  0  0  0  0  0  0  0
  1  2  1  0  0  0  0
  1  3  1  0  0  0  0
  1  8  2  0  0  0  0
  3  4  1  0  0  0  0
  3  5  2  0  0  0  0
  5  6  1  0  0  0  0
  5 46  1  0  0  0  0
  6  7  2  0  0  0  0
  6  9  1  0  0  0  0
  7  8  1  0  0  0  0
  7 13  1  0  0  0  0
  8 35  1  0  0  0  0
  9 10  1  0  0  0  0
  9 11  1  0  0  0  0
 11 12  1  0  0  0  0
 11 13  2  0  0  0  0
 13 14  1  0  0  0  0
 14 15  1  0  0  0  0
 14 32  2  0  0  0  0
 15 16  1  0  0  0  0
 15 33  2  0  0  0  0
 16 17  1  0  0  0  0
 16 27  1  0  0  0  0
 17 18  1  0  0  0  0
 17 19  1  0  0  0  0
 17 20  1  0  0  0  0
 20 21  1  0  0  0  0
 20 22  1  0  0  0  0
 20 23  1  0  0  0  0
 23 24  1  0  0  0  0
 23 30  1  0  0  0  0
 24 25  1  0  0  0  0
 24 26  1  0  0  0  0
 24 27  1  0  0  0  0
 27 28  1  0  0  0  0
 27 29  1  0  0  0  0
 30 31  1  0  0  0  0
 30 34  2  0  0  0  0
 31 36  1  0  0  0  0
 31 44  2  0  0  0  0
 36 37  1  0  0  0  0
 36 38  2  0  0  0  0
 38 39  1  0  0  0  0
 38 40  1  0  0  0  0
 40 41  1  0  0  0  0
 40 42  2  0  0  0  0
 42 43  1  0  0  0  0
 42 44  1  0  0  0  0
 44 45  1  0  0  0  0
 46 47  1  0  0  0  0
 46 55  2  0  0  0  0
 47 48  1  0  0  0  0
 47 49  2  0  0  0  0
 49 50  1  0  0  0  0
 49 51  1  0  0  0  0
 51 52  1  0  0  0  0
 51 53  2  0  0  0  0
 53 54  1  0  0  0  0
 53 55  1  0  0  0  0
 55 56  1  0  0  0  0
M  END
>  <Activity>
9.3665

>  <AM1_dipole>
5.43961

>  <AM1_E>
-134310

>  <AM1_Eele>
-1.06924e+006

>  <AM1_HF>
-13.8642

>  <AM1_HOMO>
-8.68515

>  <AM1_IP>
8.68515

>  <AM1_LUMO>
-0.71855

>  <diameter>
18

>  <petitjean>
0.5

>  <petitjeanSC>
1

>  <radius>
9

>  <VDistEq>
3.8856

>  <VDistMa>
9.85832

>  <weinerPath>
3749

>  <weinerPol>
59

>  <BCUT_PEOE_0>
-2.71188

>  <BCUT_PEOE_1>
-0.644679

>  <BCUT_PEOE_2>
0.672408

>  <BCUT_PEOE_3>
2.6503

>  <BCUT_SLOGP_0>
-2.86001

>  <BCUT_SLOGP_1>
-0.53808

>  <BCUT_SLOGP_2>
0.791578

>  <BCUT_SLOGP_3>
2.50382

>  <BCUT_SMR_0>
-2.43203

>  <BCUT_SMR_1>
-0.475132

>  <BCUT_SMR_2>
0.839254

>  <BCUT_SMR_3>
2.92027

>  <GCUT_PEOE_0>
-0.858559

>  <GCUT_PEOE_1>
-0.398764

>  <GCUT_PEOE_2>
0.0787964

>  <GCUT_PEOE_3>
2.72798

>  <GCUT_SLOGP_0>
-0.97649

>  <GCUT_SLOGP_1>
-0.295338

>  <GCUT_SLOGP_2>
0.164454

>  <GCUT_SLOGP_3>
2.76

>  <GCUT_SMR_0>
-0.508916

>  <GCUT_SMR_1>
-0.216057

>  <GCUT_SMR_2>
0.193051

>  <GCUT_SMR_3>
3.01062

>  <a_aro>
21

>  <a_count>
56

>  <a_IC>
89.2126

>  <a_ICM>
1.59308

>  <a_nH>
22

>  <b_1rotN>
6

>  <b_1rotR>
0.157895

>  <b_ar>
22

>  <b_count>
60

>  <b_double>
3

>  <b_rotN>
6

>  <b_rotR>
0.157895

>  <b_single>
35

>  <b_triple>
0

>  <chi0v>
18.3311

>  <chi0v_C>
15.334

>  <chi1v>
11.0729

>  <chi1v_C>
8.02073

>  <chiral>
0

>  <chiral_u>
0

>  <nmol>
1

>  <reactive>
0

>  <rings>
5

>  <Weight>
455.489

>  <a_heavy>
34

>  <a_nB>
0

>  <a_nBr>
0

>  <a_nC>
27

>  <a_nCl>
0

>  <a_nF>
1

>  <a_nI>
0

>  <a_nN>
3

>  <a_nO>
3

>  <a_nP>
0

>  <a_nS>
0

>  <b_heavy>
38

>  <chi0>
23.6561

>  <chi0_C>
17.7943

>  <chi1>
16.5417

>  <chi1_C>
11.0244

>  <FCharge>
0

>  <VAdjEq>
0.349836

>  <VAdjMa>
6.24793

>  <zagreb>
184

>  <balabanJ>
1.16352

>  <PEOE_PC+>
2.70906

>  <PEOE_PC->
-2.70906

>  <PEOE_RPC+>
0.108931

>  <PEOE_RPC->
0.132668

>  <PEOE_VSA+0>
76.1408

>  <PEOE_VSA+1>
98.4812

>  <PEOE_VSA+2>
9.02085

>  <PEOE_VSA+3>
8.61901

>  <PEOE_VSA+4>
0

>  <PEOE_VSA+5>
34.3576

>  <PEOE_VSA+6>
0

>  <PEOE_VSA-0>
51.2282

>  <PEOE_VSA-1>
98.0392

>  <PEOE_VSA-2>
0

>  <PEOE_VSA-3>
0

>  <PEOE_VSA-4>
11.9086

>  <PEOE_VSA-5>
40.7008

>  <PEOE_VSA-6>
0.136891

>  <PEOE_VSA_FHYD>
0.796787

>  <PEOE_VSA_FNEG>
0.471297

>  <PEOE_VSA_FPNEG>
0.123057

>  <PEOE_VSA_FPOL>
0.203213

>  <PEOE_VSA_FPOS>
0.528703

>  <PEOE_VSA_FPPOS>
0.0801561

>  <PEOE_VSA_HYD>
341.529

>  <PEOE_VSA_NEG>
202.014

>  <PEOE_VSA_PNEG>
52.7463

>  <PEOE_VSA_POL>
87.1039

>  <PEOE_VSA_POS>
226.619

>  <PEOE_VSA_PPOS>
34.3576

>  <PC+>
5.559

>  <PC->
-5.56

>  <Q_PC+>
5.559

>  <Q_PC->
-5.56

>  <Q_RPC+>
0.118007

>  <Q_RPC->
0.118705

>  <Q_VSA_FHYD>
0.642602

>  <Q_VSA_FNEG>
0.525676

>  <Q_VSA_FPNEG>
0.134023

>  <Q_VSA_FPOL>
0.357398

>  <Q_VSA_FPOS>
0.474324

>  <Q_VSA_FPPOS>
0.223375

>  <Q_VSA_HYD>
275.441

>  <Q_VSA_NEG>
225.322

>  <Q_VSA_PNEG>
57.4467

>  <Q_VSA_POL>
153.193

>  <Q_VSA_POS>
203.311

>  <Q_VSA_PPOS>
95.7459

>  <RPC+>
0.118007

>  <RPC->
0.118705

>  <lip_acc>
6

>  <lip_don>
1

>  <lip_druglike>
1

>  <lip_violation>
0

>  <opr_brigid>
28

>  <opr_leadlike>
0

>  <opr_nring>
5

>  <opr_nrot>
6

>  <opr_violation>
2

>  <E>
118.641

>  <E_ang>
6.98556

>  <E_ele>
32.2715

>  <E_nb>
92.5684

>  <E_oop>
0.0506631

>  <E_sol>
-17.2055

>  <E_stb>
0.076741

>  <E_str>
8.08121

>  <E_strain>
0.00580294

>  <E_tor>
10.878

>  <E_vdw>
60.2969

>  <E_rele>
0

>  <E_rnb>
2.13163e-014

>  <E_rsol>
2.13163e-014

>  <E_rvdw>
0

>  <Kier1>
25.6413

>  <Kier2>
11.5885

>  <Kier3>
5.49584

>  <KierA1>
17.3496

>  <KierA2>
7.74029

>  <KierA3>
3.63753

>  <KierFlex>
3.94973

>  <logS>
-6.75095

>  <MNDO_dipole>
3.94775

>  <MNDO_E>
-134398

>  <MNDO_Eele>
-1.06368e+006

>  <MNDO_HF>
-35.8241

>  <MNDO_HOMO>
-8.84782

>  <MNDO_IP>
8.84782

>  <MNDO_LUMO>
-0.65265

>  <apol>
68.4524

>  <bpol>
32.7476

>  <mr>
12.8502

>  <dipole>
1.08654

>  <dipoleX>
0.0574444

>  <dipoleY>
-0.960011

>  <dipoleZ>
0.505617

>  <pmi>
13945

>  <pmiX>
10565.7

>  <pmiY>
2484.61

>  <pmiZ>
894.665

>  <rgyr>
5.53312

>  <a_acc>
3

>  <a_acid>
0

>  <a_base>
0

>  <a_don>
1

>  <a_hyd>
25

>  <vsa_acc>
40.7008

>  <vsa_acid>
0

>  <vsa_base>
0

>  <vsa_don>
5.68258

>  <vsa_hyd>
329.871

>  <vsa_other>
34.3576

>  <vsa_pol>
46.3833

>  <PM3_dipole>
4.77081

>  <PM3_E>
-123244

>  <PM3_Eele>
-1.05018e+006

>  <PM3_HF>
-45.9299

>  <PM3_HOMO>
-8.78244

>  <PM3_IP>
8.78244

>  <PM3_LUMO>
-0.72753

>  <SlogP>
4.1413

>  <SlogP_VSA0>
0

>  <SlogP_VSA1>
22.4538

>  <SlogP_VSA2>
49.7688

>  <SlogP_VSA3>
73.7583

>  <SlogP_VSA4>
54.0956

>  <SlogP_VSA5>
0

>  <SlogP_VSA6>
0

>  <SlogP_VSA7>
240.021

>  <SlogP_VSA8>
0

>  <SlogP_VSA9>
14.9601

>  <SMR>
12.6949

>  <SMR_VSA0>
71.5866

>  <SMR_VSA1>
21.2087

>  <SMR_VSA2>
25.9065

>  <SMR_VSA3>
6.37115

>  <SMR_VSA4>
11.0883

>  <SMR_VSA5>
228.933

>  <SMR_VSA6>
89.9635

>  <SMR_VSA7>
0

>  <ASA>
744.276

>  <ASA+>
323.729

>  <ASA->
309.003

>  <ASA_H>
602.365

>  <ASA_P>
141.912

>  <CASA+>
1799.61

>  <CASA->
1718.06

>  <DASA>
14.7265

>  <DCASA>
81.5557

>  <FASA+>
0.434958

>  <FASA->
0.415172

>  <FASA_H>
0.809329

>  <FASA_P>
0.190671

>  <FCASA+>
2.41793

>  <FCASA->
2.30836

>  <VSA>
461.686

>  <TPSA>
73.48

>  <density>
0.754423

>  <vdw_area>
428.633

>  <vdw_vol>
603.758

>  <vsurf_A>
2.05935

>  <vsurf_CP>
0.128858

>  <vsurf_CW1>
2.58292

>  <vsurf_CW2>
2.02645

>  <vsurf_CW3>
1.17257

>  <vsurf_CW4>
0.530994

>  <vsurf_CW5>
0.217506

>  <vsurf_CW6>
0.0610804

>  <vsurf_CW7>
0.00426476

>  <vsurf_CW8>
0

>  <vsurf_D1>
1088.13

>  <vsurf_D2>
637.375

>  <vsurf_D3>
479.375

>  <vsurf_D4>
410.625

>  <vsurf_D5>
362.75

>  <vsurf_D6>
300.25

>  <vsurf_D7>
170.125

>  <vsurf_D8>
86.25

>  <vsurf_DD12>
3.20156

>  <vsurf_DD13>
3.4641

>  <vsurf_DD23>
0.5

>  <vsurf_DW12>
0.5

>  <vsurf_DW13>
5.76628

>  <vsurf_DW23>
6.04152

>  <vsurf_EDmin1>
-2.72435

>  <vsurf_EDmin2>
-2.69397

>  <vsurf_EDmin3>
-2.63736

>  <vsurf_EWmin1>
-5.54896

>  <vsurf_EWmin2>
-5.52198

>  <vsurf_EWmin3>
-5.39529

>  <vsurf_G>
1.40844

>  <vsurf_HB1>
317.75

>  <vsurf_HB2>
335.875

>  <vsurf_HB3>
325.25

>  <vsurf_HB4>
125

>  <vsurf_HB5>
39.75

>  <vsurf_HB6>
10.25

>  <vsurf_HB7>
0.625

>  <vsurf_HB8>
0

>  <vsurf_HL1>
0.0959583

>  <vsurf_HL2>
0.0292237

>  <vsurf_ID1>
0.636891

>  <vsurf_ID2>
0.669206

>  <vsurf_ID3>
0.768121

>  <vsurf_ID4>
0.875105

>  <vsurf_ID5>
0.952535

>  <vsurf_ID6>
0.879231

>  <vsurf_ID7>
0.666065

>  <vsurf_ID8>
0.667309

>  <vsurf_IW1>
0.263574

>  <vsurf_IW2>
0.49569

>  <vsurf_IW3>
0.971177

>  <vsurf_IW4>
1.39772

>  <vsurf_IW5>
1.40174

>  <vsurf_IW6>
1.95284

>  <vsurf_IW7>
3.54972

>  <vsurf_IW8>
0

>  <vsurf_R>
1.46204

>  <vsurf_S>
675.428

>  <vsurf_V>
987.5

>  <vsurf_W1>
1555.75

>  <vsurf_W2>
869.25

>  <vsurf_W3>
418.625

>  <vsurf_W4>
139.25

>  <vsurf_W5>
46

>  <vsurf_W6>
12

>  <vsurf_W7>
0.875

>  <vsurf_W8>
0

>  <vsurf_Wp1>
1238

>  <vsurf_Wp2>
533.375

>  <vsurf_Wp3>
93.375

>  <vsurf_Wp4>
14.25

>  <vsurf_Wp5>
6.25

>  <vsurf_Wp6>
1.75

>  <vsurf_Wp7>
0.25

>  <vsurf_Wp8>
0

>  <dens>
1.06547

>  <glob>
0.0502142

>  <std_dim1>
5.59226

>  <std_dim2>
1.58064

>  <std_dim3>
1.25314

>  <vol>
427.5

>  <logP(o/w)>
4.192

$$$$
D13.cdx
  MOE2008           3D

 60 64  0  0  0  0  0  0  0  0999 V2000
   -7.5450   17.9410   -0.3100 C   0  0  0  0  0  0  0  0  0  0  0  0
   -8.2990   18.7140   -0.4250 H   0  0  0  0  0  0  0  0  0  0  0  0
   -7.8350   16.6220   -0.6410 C   0  0  0  0  0  0  0  0  0  0  0  0
   -8.8300   16.3790   -1.0110 H   0  0  0  0  0  0  0  0  0  0  0  0
   -6.8790   15.6020   -0.4970 C   0  0  0  0  0  0  0  0  0  0  0  0
   -5.6100   15.9830   -0.0110 C   0  0  0  0  0  0  0  0  0  0  0  0
   -5.2810   17.3020    0.3290 C   0  0  0  0  0  0  0  0  0  0  0  0
   -6.2810   18.2860    0.1710 C   0  0  0  0  0  0  0  0  0  0  0  0
   -4.4850   15.2210    0.2150 N   0  0  0  0  0  0  0  0  0  0  0  0
   -4.4300   14.2240    0.0500 H   0  0  0  0  0  0  0  0  0  0  0  0
   -3.4670   16.0010    0.6880 C   0  0  0  0  0  0  0  0  0  0  0  0
   -2.5090   15.5540    0.9240 H   0  0  0  0  0  0  0  0  0  0  0  0
   -3.9160   17.3070    0.7790 C   0  0  0  0  0  0  0  0  0  0  0  0
   -3.1090   18.4330    1.2410 C   0  0  0  0  0  0  0  0  0  0  0  0
   -1.6650   18.2060    1.6470 C   0  0  0  0  0  0  0  0  0  0  0  0
   -0.6860   18.5170    0.7080 N   0  0  0  0  0  0  0  0  0  0  0  0
    0.7250   18.3060    1.0330 C   0  0  0  0  0  0  0  0  0  0  0  0
    0.8460   17.9820    2.0710 H   0  0  0  0  0  0  0  0  0  0  0  0
    1.0780   17.4920    0.3880 H   0  0  0  0  0  0  0  0  0  0  0  0
    1.5570   19.5710    0.7800 C   0  0  0  0  0  0  0  0  0  0  0  0
    2.6120   19.3300    0.9190 H   0  0  0  0  0  0  0  0  0  0  0  0
    1.2860   20.3520    1.5000 H   0  0  0  0  0  0  0  0  0  0  0  0
    1.2950   20.1210   -0.5610 N   0  0  0  0  0  0  0  0  0  0  0  0
   -0.1230   20.3280   -0.8770 C   0  0  0  0  0  0  0  0  0  0  0  0
   -0.4780   21.1290   -0.2170 H   0  0  0  0  0  0  0  0  0  0  0  0
   -0.2550   20.6680   -1.9090 H   0  0  0  0  0  0  0  0  0  0  0  0
   -0.9390   19.0530   -0.6380 C   0  0  0  0  0  0  0  0  0  0  0  0
   -0.6370   18.2750   -1.3480 H   0  0  0  0  0  0  0  0  0  0  0  0
   -1.9990   19.2560   -0.8020 H   0  0  0  0  0  0  0  0  0  0  0  0
    2.2560   20.4380   -1.5180 C   0  0  0  0  0  0  0  0  0  0  0  0
    3.6840   20.4160   -1.1320 C   0  0  0  0  0  0  0  0  0  0  0  0
   -3.5190   19.5880    1.3170 O   0  0  0  0  0  0  0  0  0  0  0  0
   -1.4590   17.7540    2.7680 O   0  0  0  0  0  0  0  0  0  0  0  0
    2.0000   20.7390   -2.6800 O   0  0  0  0  0  0  0  0  0  0  0  0
   -6.0580   19.5730    0.4700 F   0  0  0  0  0  0  0  0  0  0  0  0
    4.5560   19.5670   -1.8190 C   0  0  0  0  0  0  0  0  0  0  0  0
    4.1840   18.9190   -2.6090 H   0  0  0  0  0  0  0  0  0  0  0  0
    5.9110   19.5580   -1.4870 C   0  0  0  0  0  0  0  0  0  0  0  0
    6.5960   18.8990   -2.0140 H   0  0  0  0  0  0  0  0  0  0  0  0
    6.3890   20.4030   -0.4830 C   0  0  0  0  0  0  0  0  0  0  0  0
    7.4460   20.3960   -0.2280 H   0  0  0  0  0  0  0  0  0  0  0  0
    5.5170   21.2650    0.1870 C   0  0  0  0  0  0  0  0  0  0  0  0
    5.8980   21.9290    0.9590 H   0  0  0  0  0  0  0  0  0  0  0  0
    4.1620   21.2800   -0.1410 C   0  0  0  0  0  0  0  0  0  0  0  0
    3.4890   21.9640    0.3690 H   0  0  0  0  0  0  0  0  0  0  0  0
   -7.1800   14.2120   -0.8410 C   0  0  0  0  0  0  0  0  0  0  0  0
   -7.3220   13.8210   -2.1800 C   0  0  0  0  0  0  0  0  0  0  0  0
   -7.1960   14.5480   -2.9790 H   0  0  0  0  0  0  0  0  0  0  0  0
   -7.6190   12.4950   -2.5070 C   0  0  0  0  0  0  0  0  0  0  0  0
   -7.7250   12.2090   -3.5510 H   0  0  0  0  0  0  0  0  0  0  0  0
   -7.7840   11.5330   -1.5070 C   0  0  0  0  0  0  0  0  0  0  0  0
   -7.6470   11.9110   -0.1710 C   0  0  0  0  0  0  0  0  0  0  0  0
   -7.7720   11.2020    0.6410 H   0  0  0  0  0  0  0  0  0  0  0  0
   -7.3470   13.2400    0.1570 C   0  0  0  0  0  0  0  0  0  0  0  0
   -7.2580   13.5150    1.2070 H   0  0  0  0  0  0  0  0  0  0  0  0
   -8.0740   10.2770   -1.9630 O   0  0  0  0  0  0  0  0  0  0  0  0
   -8.2610    9.2630   -0.9830 C   0  0  0  0  0  0  0  0  0  0  0  0
   -8.4850    8.3290   -1.5080 H   0  0  0  0  0  0  0  0  0  0  0  0
   -9.1120    9.4930   -0.3340 H   0  0  0  0  0  0  0  0  0  0  0  0
   -7.3480    9.1050   -0.4000 H   0  0  0  0  0  0  0  0  0  0  0  0
  1  2  1  0  0  0  0
  1  3  1  0  0  0  0
  1  8  2  0  0  0  0
  3  4  1  0  0  0  0
  3  5  2  0  0  0  0
  5  6  1  0  0  0  0
  5 46  1  0  0  0  0
  6  7  2  0  0  0  0
  6  9  1  0  0  0  0
  7  8  1  0  0  0  0
  7 13  1  0  0  0  0
  8 35  1  0  0  0  0
  9 10  1  0  0  0  0
  9 11  1  0  0  0  0
 11 12  1  0  0  0  0
 11 13  2  0  0  0  0
 13 14  1  0  0  0  0
 14 15  1  0  0  0  0
 14 32  2  0  0  0  0
 15 16  1  0  0  0  0
 15 33  2  0  0  0  0
 16 17  1  0  0  0  0
 16 27  1  0  0  0  0
 17 18  1  0  0  0  0
 17 19  1  0  0  0  0
 17 20  1  0  0  0  0
 20 21  1  0  0  0  0
 20 22  1  0  0  0  0
 20 23  1  0  0  0  0
 23 24  1  0  0  0  0
 23 30  1  0  0  0  0
 24 25  1  0  0  0  0
 24 26  1  0  0  0  0
 24 27  1  0  0  0  0
 27 28  1  0  0  0  0
 27 29  1  0  0  0  0
 30 31  1  0  0  0  0
 30 34  2  0  0  0  0
 31 36  1  0  0  0  0
 31 44  2  0  0  0  0
 36 37  1  0  0  0  0
 36 38  2  0  0  0  0
 38 39  1  0  0  0  0
 38 40  1  0  0  0  0
 40 41  1  0  0  0  0
 40 42  2  0  0  0  0
 42 43  1  0  0  0  0
 42 44  1  0  0  0  0
 44 45  1  0  0  0  0
 46 47  1  0  0  0  0
 46 54  2  0  0  0  0
 47 48  1  0  0  0  0
 47 49  2  0  0  0  0
 49 50  1  0  0  0  0
 49 51  1  0  0  0  0
 51 52  2  0  0  0  0
 51 56  1  0  0  0  0
 52 53  1  0  0  0  0
 52 54  1  0  0  0  0
 54 55  1  0  0  0  0
 56 57  1  0  0  0  0
 57 58  1  0  0  0  0
 57 59  1  0  0  0  0
 57 60  1  0  0  0  0
M  END
>  <Activity>
10.3979

>  <AM1_dipole>
6.41319

>  <AM1_E>
-145284

>  <AM1_Eele>
-1.17983e+006

>  <AM1_HF>
-52.504

>  <AM1_HOMO>
-8.60626

>  <AM1_IP>
8.60626

>  <AM1_LUMO>
-0.68203

>  <diameter>
20

>  <petitjean>
0.5

>  <petitjeanSC>
1

>  <radius>
10

>  <VDistEq>
3.9883

>  <VDistMa>
10.0202

>  <weinerPath>
4458

>  <weinerPol>
63

>  <BCUT_PEOE_0>
-2.71188

>  <BCUT_PEOE_1>
-0.64001

>  <BCUT_PEOE_2>
0.633689

>  <BCUT_PEOE_3>
2.6503

>  <BCUT_SLOGP_0>
-2.86001

>  <BCUT_SLOGP_1>
-0.53808

>  <BCUT_SLOGP_2>
0.77375

>  <BCUT_SLOGP_3>
2.50394

>  <BCUT_SMR_0>
-2.43203

>  <BCUT_SMR_1>
-0.448296

>  <BCUT_SMR_2>
0.817781

>  <BCUT_SMR_3>
2.92027

>  <GCUT_PEOE_0>
-0.858541

>  <GCUT_PEOE_1>
-0.414865

>  <GCUT_PEOE_2>
0.0776865

>  <GCUT_PEOE_3>
2.74244

>  <GCUT_SLOGP_0>
-0.97649

>  <GCUT_SLOGP_1>
-0.311797

>  <GCUT_SLOGP_2>
0.164454

>  <GCUT_SLOGP_3>
2.78399

>  <GCUT_SMR_0>
-0.508917

>  <GCUT_SMR_1>
-0.216057

>  <GCUT_SMR_2>
0.193051

>  <GCUT_SMR_3>
3.02549

>  <a_aro>
21

>  <a_count>
60

>  <a_IC>
97.0135

>  <a_ICM>
1.61689

>  <a_nH>
24

>  <b_1rotN>
7

>  <b_1rotR>
0.175

>  <b_ar>
22

>  <b_count>
64

>  <b_double>
3

>  <b_rotN>
7

>  <b_rotR>
0.175

>  <b_single>
39

>  <b_triple>
0

>  <chi0v>
19.662

>  <chi0v_C>
16.2566

>  <chi1v>
11.5959

>  <chi1v_C>
7.93141

>  <chiral>
0

>  <chiral_u>
0

>  <nmol>
1

>  <reactive>
0

>  <rings>
5

>  <Weight>
485.515

>  <a_heavy>
36

>  <a_nB>
0

>  <a_nBr>
0

>  <a_nC>
28

>  <a_nCl>
0

>  <a_nF>
1

>  <a_nI>
0

>  <a_nN>
3

>  <a_nO>
4

>  <a_nP>
0

>  <a_nS>
0

>  <b_heavy>
40

>  <chi0>
25.2335

>  <chi0_C>
18.6646

>  <chi1>
17.4736

>  <chi1_C>
10.8409

>  <FCharge>
0

>  <VAdjEq>
0.334268

>  <VAdjMa>
6.32193

>  <zagreb>
194

>  <balabanJ>
1.15461

>  <PEOE_PC+>
2.93008

>  <PEOE_PC->
-2.93008

>  <PEOE_RPC+>
0.100714

>  <PEOE_RPC->
0.12266

>  <PEOE_VSA+0>
101.138

>  <PEOE_VSA+1>
115.47

>  <PEOE_VSA+2>
9.02085

>  <PEOE_VSA+3>
8.61901

>  <PEOE_VSA+4>
0

>  <PEOE_VSA+5>
34.3576

>  <PEOE_VSA+6>
0

>  <PEOE_VSA-0>
75.738

>  <PEOE_VSA-1>
61.2745

>  <PEOE_VSA-2>
0

>  <PEOE_VSA-3>
0

>  <PEOE_VSA-4>
11.9086

>  <PEOE_VSA-5>
40.7008

>  <PEOE_VSA-6>
2.64065

>  <PEOE_VSA_FHYD>
0.805568

>  <PEOE_VSA_FNEG>
0.417174

>  <PEOE_VSA_FPNEG>
0.119882

>  <PEOE_VSA_FPOL>
0.194432

>  <PEOE_VSA_FPOS>
0.582826

>  <PEOE_VSA_FPPOS>
0.0745496

>  <PEOE_VSA_HYD>
371.261

>  <PEOE_VSA_NEG>
192.263

>  <PEOE_VSA_PNEG>
55.25

>  <PEOE_VSA_POL>
89.6076

>  <PEOE_VSA_POS>
268.606

>  <PEOE_VSA_PPOS>
34.3576

>  <PC+>
5.771

>  <PC->
-5.773

>  <Q_PC+>
5.771

>  <Q_PC->
-5.773

>  <Q_RPC+>
0.113672

>  <Q_RPC->
0.114325

>  <Q_VSA_FHYD>
0.607928

>  <Q_VSA_FNEG>
0.467749

>  <Q_VSA_FPNEG>
0.130081

>  <Q_VSA_FPOL>
0.392072

>  <Q_VSA_FPOS>
0.532251

>  <Q_VSA_FPPOS>
0.261991

>  <Q_VSA_HYD>
280.175

>  <Q_VSA_NEG>
215.571

>  <Q_VSA_PNEG>
59.9504

>  <Q_VSA_POL>
180.694

>  <Q_VSA_POS>
245.298

>  <Q_VSA_PPOS>
120.744

>  <RPC+>
0.113672

>  <RPC->
0.114325

>  <lip_acc>
7

>  <lip_don>
1

>  <lip_druglike>
1

>  <lip_violation>
0

>  <opr_brigid>
28

>  <opr_leadlike>
0

>  <opr_nring>
5

>  <opr_nrot>
7

>  <opr_violation>
2

>  <E>
127.178

>  <E_ang>
14.7698

>  <E_ele>
29.7205

>  <E_nb>
95.1918

>  <E_oop>
0.0256046

>  <E_sol>
-19.4812

>  <E_stb>
-0.0758373

>  <E_str>
8.24657

>  <E_strain>
0.0047328

>  <E_tor>
9.02059

>  <E_vdw>
65.4713

>  <E_rele>
0

>  <E_rnb>
0

>  <E_rsol>
0

>  <E_rvdw>
0

>  <Kier1>
27.5625

>  <Kier2>
12.4531

>  <Kier3>
5.96063

>  <KierA1>
19.0936

>  <KierA2>
8.52892

>  <KierA3>
4.0498

>  <KierFlex>
4.52355

>  <logS>
-6.80133

>  <MNDO_dipole>
6.49969

>  <MNDO_E>
-145430

>  <MNDO_Eele>
-1.16627e+006

>  <MNDO_HF>
-74.432

>  <MNDO_HOMO>
-8.84323

>  <MNDO_IP>
8.84323

>  <MNDO_LUMO>
-0.68803

>  <apol>
72.348

>  <bpol>
36.85

>  <mr>
13.4983

>  <dipole>
1.47632

>  <dipoleX>
0.462158

>  <dipoleY>
-1.38383

>  <dipoleZ>
0.225681

>  <pmi>
16430.5

>  <pmiX>
10442.6

>  <pmiY>
5225.39

>  <pmiZ>
762.55

>  <rgyr>
5.81734

>  <a_acc>
4

>  <a_acid>
0

>  <a_base>
0

>  <a_don>
1

>  <a_hyd>
26

>  <vsa_acc>
43.2045

>  <vsa_acid>
0

>  <vsa_base>
0

>  <vsa_don>
5.68258

>  <vsa_hyd>
358.18

>  <vsa_other>
34.3576

>  <vsa_pol>
48.8871

>  <PM3_dipole>
6.74693

>  <PM3_E>
-133460

>  <PM3_Eele>
-1.16322e+006

>  <PM3_HF>
-88.8317

>  <PM3_HOMO>
-8.76941

>  <PM3_IP>
8.76941

>  <PM3_LUMO>
-0.68467

>  <SlogP>
4.1499

>  <SlogP_VSA0>
10.9999

>  <SlogP_VSA1>
22.4538

>  <SlogP_VSA2>
49.7688

>  <SlogP_VSA3>
73.7583

>  <SlogP_VSA4>
54.0956

>  <SlogP_VSA5>
35.3839

>  <SlogP_VSA6>
0

>  <SlogP_VSA7>
222.378

>  <SlogP_VSA8>
0

>  <SlogP_VSA9>
20.2035

>  <SMR>
13.3501

>  <SMR_VSA0>
71.5866

>  <SMR_VSA1>
32.2086

>  <SMR_VSA2>
25.9065

>  <SMR_VSA3>
11.6146

>  <SMR_VSA4>
11.0883

>  <SMR_VSA5>
211.289

>  <SMR_VSA6>
89.9635

>  <SMR_VSA7>
35.3839

>  <ASA>
788.617

>  <ASA+>
324.863

>  <ASA->
298.778

>  <ASA_H>
608.023

>  <ASA_P>
180.594

>  <CASA+>
1874.78

>  <CASA->
1724.84

>  <DASA>
26.0848

>  <DCASA>
149.938

>  <FASA+>
0.41194

>  <FASA->
0.378863

>  <FASA_H>
0.770999

>  <FASA_P>
0.229001

>  <FCASA+>
2.3773

>  <FCASA->
2.18718

>  <VSA>
491.432

>  <TPSA>
82.71

>  <density>
0.759984

>  <vdw_area>
460.869

>  <vdw_vol>
638.849

>  <vsurf_A>
3.03231

>  <vsurf_CP>
0.124576

>  <vsurf_CW1>
2.58196

>  <vsurf_CW2>
2.07491

>  <vsurf_CW3>
1.21285

>  <vsurf_CW4>
0.543671

>  <vsurf_CW5>
0.214192

>  <vsurf_CW6>
0.0571534

>  <vsurf_CW7>
0.00353906

>  <vsurf_CW8>
0

>  <vsurf_D1>
1112.75

>  <vsurf_D2>
660.25

>  <vsurf_D3>
496.5

>  <vsurf_D4>
423.625

>  <vsurf_D5>
366.25

>  <vsurf_D6>
290.125

>  <vsurf_D7>
176.25

>  <vsurf_D8>
92.375

>  <vsurf_DD12>
1.11803

>  <vsurf_DD13>
5.89491

>  <vsurf_DD23>
5.24404

>  <vsurf_DW12>
0.5

>  <vsurf_DW13>
0.707107

>  <vsurf_DW23>
0.5

>  <vsurf_EDmin1>
-2.6674

>  <vsurf_EDmin2>
-2.62711

>  <vsurf_EDmin3>
-2.62609

>  <vsurf_EWmin1>
-5.6522

>  <vsurf_EWmin2>
-5.64997

>  <vsurf_EWmin3>
-5.3987

>  <vsurf_G>
1.43548

>  <vsurf_HB1>
351

>  <vsurf_HB2>
424.125

>  <vsurf_HB3>
357.75

>  <vsurf_HB4>
135.25

>  <vsurf_HB5>
40.25

>  <vsurf_HB6>
8.375

>  <vsurf_HB7>
0.875

>  <vsurf_HB8>
0

>  <vsurf_HL1>
0.0944109

>  <vsurf_HL2>
0.0256713

>  <vsurf_ID1>
0.746208

>  <vsurf_ID2>
0.853906

>  <vsurf_ID3>
1.0031

>  <vsurf_ID4>
1.11019

>  <vsurf_ID5>
1.17656

>  <vsurf_ID6>
0.933376

>  <vsurf_ID7>
0.681639

>  <vsurf_ID8>
0.852761

>  <vsurf_IW1>
0.256925

>  <vsurf_IW2>
0.343565

>  <vsurf_IW3>
0.849939

>  <vsurf_IW4>
1.55619

>  <vsurf_IW5>
2.16045

>  <vsurf_IW6>
2.80966

>  <vsurf_IW7>
4.19127

>  <vsurf_IW8>
0

>  <vsurf_R>
1.46181

>  <vsurf_S>
714.869

>  <vsurf_V>
1045

>  <vsurf_W1>
1637.25

>  <vsurf_W2>
952

>  <vsurf_W3>
452.625

>  <vsurf_W4>
150.75

>  <vsurf_W5>
46.875

>  <vsurf_W6>
10.875

>  <vsurf_W7>
0.875

>  <vsurf_W8>
0

>  <vsurf_Wp1>
1286.25

>  <vsurf_Wp2>
527.875

>  <vsurf_Wp3>
94.875

>  <vsurf_Wp4>
15.5

>  <vsurf_Wp5>
6.625

>  <vsurf_Wp6>
2.5

>  <vsurf_Wp7>
0

>  <vsurf_Wp8>
0

>  <dens>
1.07355

>  <glob>
0.0456951

>  <std_dim1>
5.81981

>  <std_dim2>
1.9484

>  <std_dim3>
1.24407

>  <vol>
452.25

>  <logP(o/w)>
4.148

$$$$
D13.cdx
  MOE2008           3D

 55 59  0  0  0  0  0  0  0  0999 V2000
   -6.5530   12.2540   -0.0250 C   0  0  0  0  0  0  0  0  0  0  0  0
   -7.4060   12.9250   -0.0800 H   0  0  0  0  0  0  0  0  0  0  0  0
   -6.5840   11.1460    0.8230 C   0  0  0  0  0  0  0  0  0  0  0  0
   -7.4830   11.0040    1.4180 H   0  0  0  0  0  0  0  0  0  0  0  0
   -5.5020   10.2450    0.9270 C   0  0  0  0  0  0  0  0  0  0  0  0
   -4.3830   10.5660    0.1180 C   0  0  0  0  0  0  0  0  0  0  0  0
   -4.3120   11.6630   -0.7470 C   0  0  0  0  0  0  0  0  0  0  0  0
   -5.4310   12.5150   -0.8090 C   0  0  0  0  0  0  0  0  0  0  0  0
   -3.1800    9.9020    0.0090 N   0  0  0  0  0  0  0  0  0  0  0  0
   -2.9780    9.0680    0.5520 H   0  0  0  0  0  0  0  0  0  0  0  0
   -2.3620   10.5200   -0.8880 C   0  0  0  0  0  0  0  0  0  0  0  0
   -1.3790   10.1150   -1.0940 H   0  0  0  0  0  0  0  0  0  0  0  0
   -3.0250   11.6260   -1.3890 C   0  0  0  0  0  0  0  0  0  0  0  0
   -2.4710   12.5420   -2.3790 C   0  0  0  0  0  0  0  0  0  0  0  0
   -1.0700   12.3040   -2.9160 C   0  0  0  0  0  0  0  0  0  0  0  0
   -0.0340   13.0210   -2.3200 N   0  0  0  0  0  0  0  0  0  0  0  0
    1.3410   12.7720   -2.7550 C   0  0  0  0  0  0  0  0  0  0  0  0
    1.4330   11.7540   -3.1480 H   0  0  0  0  0  0  0  0  0  0  0  0
    1.5380   13.4640   -3.5830 H   0  0  0  0  0  0  0  0  0  0  0  0
    2.3530   12.9970   -1.6280 C   0  0  0  0  0  0  0  0  0  0  0  0
    3.3690   12.8440   -2.0050 H   0  0  0  0  0  0  0  0  0  0  0  0
    2.1720   12.2730   -0.8250 H   0  0  0  0  0  0  0  0  0  0  0  0
    2.2390   14.3350   -1.0280 N   0  0  0  0  0  0  0  0  0  0  0  0
    0.9440   15.0090   -1.1650 C   0  0  0  0  0  0  0  0  0  0  0  0
    0.7880   15.6940   -0.3240 H   0  0  0  0  0  0  0  0  0  0  0  0
    1.0040   15.6160   -2.0760 H   0  0  0  0  0  0  0  0  0  0  0  0
   -0.2290   14.0280   -1.2680 C   0  0  0  0  0  0  0  0  0  0  0  0
   -1.1570   14.5780   -1.4430 H   0  0  0  0  0  0  0  0  0  0  0  0
   -0.3400   13.4770   -0.3270 H   0  0  0  0  0  0  0  0  0  0  0  0
    3.2690   15.0080   -0.3730 C   0  0  0  0  0  0  0  0  0  0  0  0
    4.5310   14.2850   -0.1010 C   0  0  0  0  0  0  0  0  0  0  0  0
   -3.0680   13.5190   -2.8210 O   0  0  0  0  0  0  0  0  0  0  0  0
   -0.9400   11.4830   -3.8170 O   0  0  0  0  0  0  0  0  0  0  0  0
    3.2010   16.1780   -0.0080 O   0  0  0  0  0  0  0  0  0  0  0  0
   -5.4580   13.5950   -1.6020 F   0  0  0  0  0  0  0  0  0  0  0  0
    5.7260   14.7990   -0.6140 C   0  0  0  0  0  0  0  0  0  0  0  0
    5.7220   15.7050   -1.2160 H   0  0  0  0  0  0  0  0  0  0  0  0
    6.9280   14.1440   -0.3490 C   0  0  0  0  0  0  0  0  0  0  0  0
    7.8600   14.5340   -0.7480 H   0  0  0  0  0  0  0  0  0  0  0  0
    6.9350   12.9900    0.4380 C   0  0  0  0  0  0  0  0  0  0  0  0
    7.8740   12.4830    0.6460 H   0  0  0  0  0  0  0  0  0  0  0  0
    5.7430   12.4920    0.9680 C   0  0  0  0  0  0  0  0  0  0  0  0
    5.7580   11.6020    1.5920 H   0  0  0  0  0  0  0  0  0  0  0  0
    4.5370   13.1420    0.7070 C   0  0  0  0  0  0  0  0  0  0  0  0
    3.6150   12.7650    1.1420 H   0  0  0  0  0  0  0  0  0  0  0  0
   -5.4940    9.0460    1.8010 C   0  0  0  0  0  0  0  0  0  0  0  0
   -6.6400    8.5250    2.4060 C   0  0  0  0  0  0  0  0  0  0  0  0
   -7.6190    8.9690    2.2630 H   0  0  0  0  0  0  0  0  0  0  0  0
   -6.5370    7.3890    3.2100 C   0  0  0  0  0  0  0  0  0  0  0  0
   -7.4220    6.9750    3.6850 H   0  0  0  0  0  0  0  0  0  0  0  0
   -5.3000    6.7900    3.3960 C   0  0  0  0  0  0  0  0  0  0  0  0
   -5.1910    5.9070    4.0150 H   0  0  0  0  0  0  0  0  0  0  0  0
   -4.2100    7.3540    2.7620 C   0  0  0  0  0  0  0  0  0  0  0  0
   -3.2180    6.9250    2.8700 H   0  0  0  0  0  0  0  0  0  0  0  0
   -4.2770    8.4530    1.9760 N   0  0  0  0  0  0  0  0  0  0  0  0
  1  2  1  0  0  0  0
  1  3  1  0  0  0  0
  1  8  2  0  0  0  0
  3  4  1  0  0  0  0
  3  5  2  0  0  0  0
  5  6  1  0  0  0  0
  5 46  1  0  0  0  0
  6  7  2  0  0  0  0
  6  9  1  0  0  0  0
  7  8  1  0  0  0  0
  7 13  1  0  0  0  0
  8 35  1  0  0  0  0
  9 10  1  0  0  0  0
  9 11  1  0  0  0  0
 11 12  1  0  0  0  0
 11 13  2  0  0  0  0
 13 14  1  0  0  0  0
 14 15  1  0  0  0  0
 14 32  2  0  0  0  0
 15 16  1  0  0  0  0
 15 33  2  0  0  0  0
 16 17  1  0  0  0  0
 16 27  1  0  0  0  0
 17 18  1  0  0  0  0
 17 19  1  0  0  0  0
 17 20  1  0  0  0  0
 20 21  1  0  0  0  0
 20 22  1  0  0  0  0
 20 23  1  0  0  0  0
 23 24  1  0  0  0  0
 23 30  1  0  0  0  0
 24 25  1  0  0  0  0
 24 26  1  0  0  0  0
 24 27  1  0  0  0  0
 27 28  1  0  0  0  0
 27 29  1  0  0  0  0
 30 31  1  0  0  0  0
 30 34  2  0  0  0  0
 31 36  1  0  0  0  0
 31 44  2  0  0  0  0
 36 37  1  0  0  0  0
 36 38  2  0  0  0  0
 38 39  1  0  0  0  0
 38 40  1  0  0  0  0
 40 41  1  0  0  0  0
 40 42  2  0  0  0  0
 42 43  1  0  0  0  0
 42 44  1  0  0  0  0
 44 45  1  0  0  0  0
 46 47  1  0  0  0  0
 46 55  2  0  0  0  0
 47 48  1  0  0  0  0
 47 49  2  0  0  0  0
 49 50  1  0  0  0  0
 49 51  1  0  0  0  0
 51 52  1  0  0  0  0
 51 53  2  0  0  0  0
 53 54  1  0  0  0  0
 53 55  1  0  0  0  0
M  END
>  <Activity>
9.9208

>  <AM1_dipole>
7.05083

>  <AM1_E>
-135808

>  <AM1_Eele>
-1.08127e+006

>  <AM1_HF>
-1.13733

>  <AM1_HOMO>
-8.66551

>  <AM1_IP>
8.66551

>  <AM1_LUMO>
-0.88233

>  <diameter>
18

>  <petitjean>
0.5

>  <petitjeanSC>
1

>  <radius>
9

>  <VDistEq>
3.8856

>  <VDistMa>
9.85832

>  <weinerPath>
3749

>  <weinerPol>
59

>  <BCUT_PEOE_0>
-2.71188

>  <BCUT_PEOE_1>
-0.638576

>  <BCUT_PEOE_2>
0.633769

>  <BCUT_PEOE_3>
2.6503

>  <BCUT_SLOGP_0>
-2.86001

>  <BCUT_SLOGP_1>
-0.53808

>  <BCUT_SLOGP_2>
0.764174

>  <BCUT_SLOGP_3>
2.50364

>  <BCUT_SMR_0>
-2.43203

>  <BCUT_SMR_1>
-0.425778

>  <BCUT_SMR_2>
0.811951

>  <BCUT_SMR_3>
2.92026

>  <GCUT_PEOE_0>
-0.858282

>  <GCUT_PEOE_1>
-0.403743

>  <GCUT_PEOE_2>
0.0780624

>  <GCUT_PEOE_3>
2.71662

>  <GCUT_SLOGP_0>
-0.976491

>  <GCUT_SLOGP_1>
-0.302072

>  <GCUT_SLOGP_2>
0.164454

>  <GCUT_SLOGP_3>
2.73176

>  <GCUT_SMR_0>
-0.508916

>  <GCUT_SMR_1>
-0.216057

>  <GCUT_SMR_2>
0.193051

>  <GCUT_SMR_3>
2.99535

>  <a_aro>
21

>  <a_count>
55

>  <a_IC>
90.7698

>  <a_ICM>
1.65036

>  <a_nH>
21

>  <b_1rotN>
6

>  <b_1rotR>
0.157895

>  <b_ar>
22

>  <b_count>
59

>  <b_double>
3

>  <b_rotN>
6

>  <b_rotR>
0.157895

>  <b_single>
34

>  <b_triple>
0

>  <chi0v>
18.201

>  <chi0v_C>
14.7566

>  <chi1v>
10.9327

>  <chi1v_C>
7.39872

>  <chiral>
0

>  <chiral_u>
0

>  <nmol>
1

>  <reactive>
0

>  <rings>
5

>  <Weight>
456.477

>  <a_heavy>
34

>  <a_nB>
0

>  <a_nBr>
0

>  <a_nC>
26

>  <a_nCl>
0

>  <a_nF>
1

>  <a_nI>
0

>  <a_nN>
4

>  <a_nO>
3

>  <a_nP>
0

>  <a_nS>
0

>  <b_heavy>
38

>  <chi0>
23.6561

>  <chi0_C>
17.0872

>  <chi1>
16.5417

>  <chi1_C>
10.1162

>  <FCharge>
0

>  <VAdjEq>
0.349836

>  <VAdjMa>
6.24793

>  <zagreb>
184

>  <balabanJ>
1.16352

>  <PEOE_PC+>
2.79197

>  <PEOE_PC->
-2.79197

>  <PEOE_RPC+>
0.105696

>  <PEOE_RPC->
0.128714

>  <PEOE_VSA+0>
92.8867

>  <PEOE_VSA+1>
100.915

>  <PEOE_VSA+2>
9.02085

>  <PEOE_VSA+3>
8.61901

>  <PEOE_VSA+4>
0

>  <PEOE_VSA+5>
34.3576

>  <PEOE_VSA+6>
0

>  <PEOE_VSA-0>
73.5294

>  <PEOE_VSA-1>
49.0196

>  <PEOE_VSA-2>
0

>  <PEOE_VSA-3>
0

>  <PEOE_VSA-4>
11.9086

>  <PEOE_VSA-5>
46.3833

>  <PEOE_VSA-6>
0.136891

>  <PEOE_VSA_FHYD>
0.782588

>  <PEOE_VSA_FNEG>
0.424057

>  <PEOE_VSA_FPNEG>
0.136907

>  <PEOE_VSA_FPOL>
0.217412

>  <PEOE_VSA_FPOS>
0.575943

>  <PEOE_VSA_FPPOS>
0.0805047

>  <PEOE_VSA_HYD>
333.991

>  <PEOE_VSA_NEG>
180.978

>  <PEOE_VSA_PNEG>
58.4289

>  <PEOE_VSA_POL>
92.7864

>  <PEOE_VSA_POS>
245.8

>  <PEOE_VSA_PPOS>
34.3576

>  <PC+>
5.879

>  <PC->
-5.88

>  <Q_PC+>
5.879

>  <Q_PC->
-5.88

>  <Q_RPC+>
0.111584

>  <Q_RPC->
0.112245

>  <Q_VSA_FHYD>
0.612035

>  <Q_VSA_FNEG>
0.483847

>  <Q_VSA_FPNEG>
0.147921

>  <Q_VSA_FPOL>
0.387965

>  <Q_VSA_FPOS>
0.516153

>  <Q_VSA_FPPOS>
0.240044

>  <Q_VSA_HYD>
261.203

>  <Q_VSA_NEG>
206.495

>  <Q_VSA_PNEG>
63.1293

>  <Q_VSA_POL>
165.575

>  <Q_VSA_POS>
220.282

>  <Q_VSA_PPOS>
102.445

>  <RPC+>
0.111584

>  <RPC->
0.112245

>  <lip_acc>
7

>  <lip_don>
1

>  <lip_druglike>
1

>  <lip_violation>
0

>  <opr_brigid>
28

>  <opr_leadlike>
0

>  <opr_nring>
5

>  <opr_nrot>
6

>  <opr_violation>
2

>  <E>
115.692

>  <E_ang>
8.30123

>  <E_ele>
29.1172

>  <E_nb>
93.8416

>  <E_oop>
0.0484469

>  <E_sol>
-13.8103

>  <E_stb>
0.706568

>  <E_str>
8.40782

>  <E_strain>
0.00499543

>  <E_tor>
4.38581

>  <E_vdw>
64.7245

>  <E_rele>
0

>  <E_rnb>
-2.84217e-014

>  <E_rsol>
-2.84217e-014

>  <E_rvdw>
0

>  <Kier1>
25.6413

>  <Kier2>
11.5885

>  <Kier3>
5.49584

>  <KierA1>
17.2785

>  <KierA2>
7.70746

>  <KierA3>
3.62173

>  <KierFlex>
3.91687

>  <logS>
-5.46161

>  <MNDO_dipole>
8.80221

>  <MNDO_E>
-135899

>  <MNDO_Eele>
-1.07364e+006

>  <MNDO_HF>
-28.4101

>  <MNDO_HOMO>
-8.86682

>  <MNDO_IP>
8.86682

>  <MNDO_LUMO>
-0.73939

>  <apol>
67.1257

>  <bpol>
32.9743

>  <mr>
12.6827

>  <dipole>
2.18659

>  <dipoleX>
0.138381

>  <dipoleY>
-1.73905

>  <dipoleZ>
1.31822

>  <pmi>
12422.1

>  <pmiX>
8350.13

>  <pmiY>
2597.07

>  <pmiZ>
1474.88

>  <rgyr>
5.2166

>  <a_acc>
4

>  <a_acid>
0

>  <a_base>
0

>  <a_don>
1

>  <a_hyd>
24

>  <vsa_acc>
46.3833

>  <vsa_acid>
0

>  <vsa_base>
0

>  <vsa_don>
5.68258

>  <vsa_hyd>
323.045

>  <vsa_other>
34.3576

>  <vsa_pol>
52.0659

>  <PM3_dipole>
8.91226

>  <PM3_E>
-123896

>  <PM3_Eele>
-1.05645e+006

>  <PM3_HF>
-42.6411

>  <PM3_HOMO>
-8.65368

>  <PM3_IP>
8.65368

>  <PM3_LUMO>
-1.13133

>  <SlogP>
3.5363

>  <SlogP_VSA0>
0

>  <SlogP_VSA1>
39.2393

>  <SlogP_VSA2>
49.7688

>  <SlogP_VSA3>
73.7583

>  <SlogP_VSA4>
54.0956

>  <SlogP_VSA5>
0

>  <SlogP_VSA6>
0

>  <SlogP_VSA7>
221.52

>  <SlogP_VSA8>
0

>  <SlogP_VSA9>
14.9601

>  <SMR>
12.4744

>  <SMR_VSA0>
71.5866

>  <SMR_VSA1>
37.9943

>  <SMR_VSA2>
25.9065

>  <SMR_VSA3>
6.37115

>  <SMR_VSA4>
10.6594

>  <SMR_VSA5>
210.861

>  <SMR_VSA6>
89.9635

>  <SMR_VSA7>
0

>  <ASA>
728.526

>  <ASA+>
317.688

>  <ASA->
297.247

>  <ASA_H>
578.612

>  <ASA_P>
149.914

>  <CASA+>
1867.69

>  <CASA->
1747.81

>  <DASA>
20.4408

>  <DCASA>
119.874

>  <FASA+>
0.43607

>  <FASA->
0.408012

>  <FASA_H>
0.794223

>  <FASA_P>
0.205777

>  <FCASA+>
2.56365

>  <FCASA->
2.39911

>  <VSA>
451.352

>  <TPSA>
86.37

>  <density>
0.767598

>  <vdw_area>
426.777

>  <vdw_vol>
594.682

>  <vsurf_A>
3.4804

>  <vsurf_CP>
0.115562

>  <vsurf_CW1>
2.60638

>  <vsurf_CW2>
2.08178

>  <vsurf_CW3>
1.26326

>  <vsurf_CW4>
0.597241

>  <vsurf_CW5>
0.258339

>  <vsurf_CW6>
0.0821471

>  <vsurf_CW7>
0.00872348

>  <vsurf_CW8>
0

>  <vsurf_D1>
1080.13

>  <vsurf_D2>
629

>  <vsurf_D3>
465.375

>  <vsurf_D4>
398.25

>  <vsurf_D5>
342.75

>  <vsurf_D6>
284.375

>  <vsurf_D7>
170.375

>  <vsurf_D8>
92

>  <vsurf_DD12>
3.20156

>  <vsurf_DD13>
0.707107

>  <vsurf_DD23>
3.77492

>  <vsurf_DW12>
0.5

>  <vsurf_DW13>
0.707107

>  <vsurf_DW23>
1.11803

>  <vsurf_EDmin1>
-2.73692

>  <vsurf_EDmin2>
-2.60797

>  <vsurf_EDmin3>
-2.57967

>  <vsurf_EWmin1>
-5.7596

>  <vsurf_EWmin2>
-5.6125

>  <vsurf_EWmin3>
-5.47537

>  <vsurf_G>
1.39762

>  <vsurf_HB1>
340.625

>  <vsurf_HB2>
370.5

>  <vsurf_HB3>
354.25

>  <vsurf_HB4>
147.25

>  <vsurf_HB5>
52.75

>  <vsurf_HB6>
15.125

>  <vsurf_HB7>
2.125

>  <vsurf_HB8>
0

>  <vsurf_HL1>
0.117378

>  <vsurf_HL2>
0.0379787

>  <vsurf_ID1>
1.47024

>  <vsurf_ID2>
1.41389

>  <vsurf_ID3>
1.48405

>  <vsurf_ID4>
1.70725

>  <vsurf_ID5>
1.90432

>  <vsurf_ID6>
1.88466

>  <vsurf_ID7>
1.4058

>  <vsurf_ID8>
1.0908

>  <vsurf_IW1>
0.229372

>  <vsurf_IW2>
1.04133

>  <vsurf_IW3>
1.75254

>  <vsurf_IW4>
2.18466

>  <vsurf_IW5>
2.04419

>  <vsurf_IW6>
1.68964

>  <vsurf_IW7>
2.20753

>  <vsurf_IW8>
0

>  <vsurf_R>
1.46359

>  <vsurf_S>
661.389

>  <vsurf_V>
968

>  <vsurf_W1>
1567

>  <vsurf_W2>
894

>  <vsurf_W3>
446.25

>  <vsurf_W4>
156.25

>  <vsurf_W5>
54.625

>  <vsurf_W6>
15.125

>  <vsurf_W7>
2.125

>  <vsurf_W8>
0

>  <vsurf_Wp1>
1226.38

>  <vsurf_Wp2>
523.5

>  <vsurf_Wp3>
92

>  <vsurf_Wp4>
9

>  <vsurf_Wp5>
1.875

>  <vsurf_Wp6>
0

>  <vsurf_Wp7>
0

>  <vsurf_Wp8>
0

>  <dens>
1.08815

>  <glob>
0.048976

>  <std_dim1>
4.96703

>  <std_dim2>
2.22344

>  <std_dim3>
1.09923

>  <vol>
419.5

>  <logP(o/w)>
2.921

$$$$
D13.cdx
  MOE2008           3D

 55 59  0  0  0  0  0  0  0  0999 V2000
   -5.6030    7.5240    0.1700 C   0  0  0  0  0  0  0  0  0  0  0  0
   -6.5200    8.1060    0.2170 H   0  0  0  0  0  0  0  0  0  0  0  0
   -5.5240    6.2860    0.8000 C   0  0  0  0  0  0  0  0  0  0  0  0
   -6.3950    5.9150    1.3380 H   0  0  0  0  0  0  0  0  0  0  0  0
   -4.3520    5.5110    0.7500 C   0  0  0  0  0  0  0  0  0  0  0  0
   -3.2600    6.0510    0.0350 C   0  0  0  0  0  0  0  0  0  0  0  0
   -3.3030    7.2980   -0.6040 C   0  0  0  0  0  0  0  0  0  0  0  0
   -4.5060    8.0320   -0.5260 C   0  0  0  0  0  0  0  0  0  0  0  0
   -1.9980    5.5400   -0.1750 N   0  0  0  0  0  0  0  0  0  0  0  0
   -1.6730    4.6510    0.1820 H   0  0  0  0  0  0  0  0  0  0  0  0
   -1.2520    6.4040   -0.9280 C   0  0  0  0  0  0  0  0  0  0  0  0
   -0.2330    6.1470   -1.1900 H   0  0  0  0  0  0  0  0  0  0  0  0
   -2.0180    7.5210   -1.2110 C   0  0  0  0  0  0  0  0  0  0  0  0
   -1.5530    8.6780   -1.9720 C   0  0  0  0  0  0  0  0  0  0  0  0
   -0.1480    8.6830   -2.5500 C   0  0  0  0  0  0  0  0  0  0  0  0
    0.8620    9.2120   -1.7470 N   0  0  0  0  0  0  0  0  0  0  0  0
    2.2390    9.2100   -2.2420 C   0  0  0  0  0  0  0  0  0  0  0  0
    2.3730    8.4170   -2.9850 H   0  0  0  0  0  0  0  0  0  0  0  0
    2.3910   10.1690   -2.7510 H   0  0  0  0  0  0  0  0  0  0  0  0
    3.2570    9.0480   -1.1090 C   0  0  0  0  0  0  0  0  0  0  0  0
    4.2740    9.1040   -1.5110 H   0  0  0  0  0  0  0  0  0  0  0  0
    3.1280    8.0660   -0.6400 H   0  0  0  0  0  0  0  0  0  0  0  0
    3.0860   10.0520   -0.0480 N   0  0  0  0  0  0  0  0  0  0  0  0
    1.7730   10.6960    0.0460 C   0  0  0  0  0  0  0  0  0  0  0  0
    1.5910   11.0350    1.0720 H   0  0  0  0  0  0  0  0  0  0  0  0
    1.8180   11.5880   -0.5910 H   0  0  0  0  0  0  0  0  0  0  0  0
    0.6330    9.7830   -0.4130 C   0  0  0  0  0  0  0  0  0  0  0  0
   -0.3130   10.3330   -0.4020 H   0  0  0  0  0  0  0  0  0  0  0  0
    0.5340    8.9350    0.2760 H   0  0  0  0  0  0  0  0  0  0  0  0
    4.0830   10.4490    0.8420 C   0  0  0  0  0  0  0  0  0  0  0  0
    5.3810    9.7390    0.8220 C   0  0  0  0  0  0  0  0  0  0  0  0
   -2.2250    9.6850   -2.1750 O   0  0  0  0  0  0  0  0  0  0  0  0
    0.0080    8.2210   -3.6750 O   0  0  0  0  0  0  0  0  0  0  0  0
    3.9610   11.3710    1.6440 O   0  0  0  0  0  0  0  0  0  0  0  0
   -4.6390    9.2320   -1.1080 F   0  0  0  0  0  0  0  0  0  0  0  0
    5.4560    8.3790    1.1390 C   0  0  0  0  0  0  0  0  0  0  0  0
    4.5610    7.8200    1.4000 H   0  0  0  0  0  0  0  0  0  0  0  0
    6.6950    7.7400    1.1350 C   0  0  0  0  0  0  0  0  0  0  0  0
    6.7650    6.6820    1.3780 H   0  0  0  0  0  0  0  0  0  0  0  0
    7.8520    8.4600    0.8320 C   0  0  0  0  0  0  0  0  0  0  0  0
    8.8180    7.9600    0.8330 H   0  0  0  0  0  0  0  0  0  0  0  0
    7.7770    9.8230    0.5380 C   0  0  0  0  0  0  0  0  0  0  0  0
    8.6820   10.3820    0.3160 H   0  0  0  0  0  0  0  0  0  0  0  0
    6.5400   10.4690    0.5390 C   0  0  0  0  0  0  0  0  0  0  0  0
    6.4820   11.5330    0.3230 H   0  0  0  0  0  0  0  0  0  0  0  0
   -4.2650    4.2150    1.4200 C   0  0  0  0  0  0  0  0  0  0  0  0
   -4.1490    4.1190    2.8110 C   0  0  0  0  0  0  0  0  0  0  0  0
   -4.1120    5.0180    3.4220 H   0  0  0  0  0  0  0  0  0  0  0  0
   -4.0800    2.8700    3.4250 C   0  0  0  0  0  0  0  0  0  0  0  0
   -3.9930    2.7810    4.5020 H   0  0  0  0  0  0  0  0  0  0  0  0
   -4.1290    1.7420    2.6230 C   0  0  0  0  0  0  0  0  0  0  0  0
   -4.0800    0.7470    3.0530 H   0  0  0  0  0  0  0  0  0  0  0  0
   -4.2400    1.7830    1.2780 N   0  0  0  0  0  0  0  0  0  0  0  0
   -4.3090    3.0130    0.7130 C   0  0  0  0  0  0  0  0  0  0  0  0
   -4.4120    3.0030   -0.3700 H   0  0  0  0  0  0  0  0  0  0  0  0
  1  2  1  0  0  0  0
  1  3  1  0  0  0  0
  1  8  2  0  0  0  0
  3  4  1  0  0  0  0
  3  5  2  0  0  0  0
  5  6  1  0  0  0  0
  5 46  1  0  0  0  0
  6  7  2  0  0  0  0
  6  9  1  0  0  0  0
  7  8  1  0  0  0  0
  7 13  1  0  0  0  0
  8 35  1  0  0  0  0
  9 10  1  0  0  0  0
  9 11  1  0  0  0  0
 11 12  1  0  0  0  0
 11 13  2  0  0  0  0
 13 14  1  0  0  0  0
 14 15  1  0  0  0  0
 14 32  2  0  0  0  0
 15 16  1  0  0  0  0
 15 33  2  0  0  0  0
 16 17  1  0  0  0  0
 16 27  1  0  0  0  0
 17 18  1  0  0  0  0
 17 19  1  0  0  0  0
 17 20  1  0  0  0  0
 20 21  1  0  0  0  0
 20 22  1  0  0  0  0
 20 23  1  0  0  0  0
 23 24  1  0  0  0  0
 23 30  1  0  0  0  0
 24 25  1  0  0  0  0
 24 26  1  0  0  0  0
 24 27  1  0  0  0  0
 27 28  1  0  0  0  0
 27 29  1  0  0  0  0
 30 31  1  0  0  0  0
 30 34  2  0  0  0  0
 31 36  1  0  0  0  0
 31 44  2  0  0  0  0
 36 37  1  0  0  0  0
 36 38  2  0  0  0  0
 38 39  1  0  0  0  0
 38 40  1  0  0  0  0
 40 41  1  0  0  0  0
 40 42  2  0  0  0  0
 42 43  1  0  0  0  0
 42 44  1  0  0  0  0
 44 45  1  0  0  0  0
 46 47  1  0  0  0  0
 46 54  2  0  0  0  0
 47 48  1  0  0  0  0
 47 49  2  0  0  0  0
 49 50  1  0  0  0  0
 49 51  1  0  0  0  0
 51 52  1  0  0  0  0
 51 53  2  0  0  0  0
 53 54  1  0  0  0  0
 54 55  1  0  0  0  0
M  END
>  <Activity>
10.2218

>  <AM1_dipole>
5.43662

>  <AM1_E>
-135808

>  <AM1_Eele>
-1.08299e+006

>  <AM1_HF>
-3.03083

>  <AM1_HOMO>
-8.80755

>  <AM1_IP>
8.80755

>  <AM1_LUMO>
-0.90045

>  <diameter>
18

>  <petitjean>
0.5

>  <petitjeanSC>
1

>  <radius>
9

>  <VDistEq>
3.8856

>  <VDistMa>
9.85832

>  <weinerPath>
3749

>  <weinerPol>
59

>  <BCUT_PEOE_0>
-2.71188

>  <BCUT_PEOE_1>
-0.6386

>  <BCUT_PEOE_2>
0.667849

>  <BCUT_PEOE_3>
2.6503

>  <BCUT_SLOGP_0>
-2.86001

>  <BCUT_SLOGP_1>
-0.53808

>  <BCUT_SLOGP_2>
0.769485

>  <BCUT_SLOGP_3>
2.50373

>  <BCUT_SMR_0>
-2.43203

>  <BCUT_SMR_1>
-0.453075

>  <BCUT_SMR_2>
0.818842

>  <BCUT_SMR_3>
2.92026

>  <GCUT_PEOE_0>
-0.858515

>  <GCUT_PEOE_1>
-0.403743

>  <GCUT_PEOE_2>
0.080099

>  <GCUT_PEOE_3>
2.71996

>  <GCUT_SLOGP_0>
-0.97649

>  <GCUT_SLOGP_1>
-0.301995

>  <GCUT_SLOGP_2>
0.164454

>  <GCUT_SLOGP_3>
2.74019

>  <GCUT_SMR_0>
-0.508916

>  <GCUT_SMR_1>
-0.216057

>  <GCUT_SMR_2>
0.193051

>  <GCUT_SMR_3>
2.99998

>  <a_aro>
21

>  <a_count>
55

>  <a_IC>
90.7698

>  <a_ICM>
1.65036

>  <a_nH>
21

>  <b_1rotN>
6

>  <b_1rotR>
0.157895

>  <b_ar>
22

>  <b_count>
59

>  <b_double>
3

>  <b_rotN>
6

>  <b_rotR>
0.157895

>  <b_single>
34

>  <b_triple>
0

>  <chi0v>
18.201

>  <chi0v_C>
14.7566

>  <chi1v>
10.9226

>  <chi1v_C>
7.35406

>  <chiral>
0

>  <chiral_u>
0

>  <nmol>
1

>  <reactive>
0

>  <rings>
5

>  <Weight>
456.477

>  <a_heavy>
34

>  <a_nB>
0

>  <a_nBr>
0

>  <a_nC>
26

>  <a_nCl>
0

>  <a_nF>
1

>  <a_nI>
0

>  <a_nN>
4

>  <a_nO>
3

>  <a_nP>
0

>  <a_nS>
0

>  <b_heavy>
38

>  <chi0>
23.6561

>  <chi0_C>
17.0872

>  <chi1>
16.5417

>  <chi1_C>
10.0244

>  <FCharge>
0

>  <VAdjEq>
0.349836

>  <VAdjMa>
6.24793

>  <zagreb>
184

>  <balabanJ>
1.16352

>  <PEOE_PC+>
2.75785

>  <PEOE_PC->
-2.75785

>  <PEOE_RPC+>
0.107004

>  <PEOE_RPC->
0.13032

>  <PEOE_VSA+0>
111.841

>  <PEOE_VSA+1>
94.2158

>  <PEOE_VSA+2>
9.02085

>  <PEOE_VSA+3>
8.61901

>  <PEOE_VSA+4>
0

>  <PEOE_VSA+5>
34.3576

>  <PEOE_VSA+6>
0

>  <PEOE_VSA-0>
61.2745

>  <PEOE_VSA-1>
49.0196

>  <PEOE_VSA-2>
0

>  <PEOE_VSA-3>
0

>  <PEOE_VSA-4>
11.9086

>  <PEOE_VSA-5>
46.3833

>  <PEOE_VSA-6>
0.136891

>  <PEOE_VSA_FHYD>
0.782588

>  <PEOE_VSA_FNEG>
0.395342

>  <PEOE_VSA_FPNEG>
0.136907

>  <PEOE_VSA_FPOL>
0.217412

>  <PEOE_VSA_FPOS>
0.604658

>  <PEOE_VSA_FPPOS>
0.0805047

>  <PEOE_VSA_HYD>
333.991

>  <PEOE_VSA_NEG>
168.723

>  <PEOE_VSA_PNEG>
58.4289

>  <PEOE_VSA_POL>
92.7864

>  <PEOE_VSA_POS>
258.054

>  <PEOE_VSA_PPOS>
34.3576

>  <PC+>
5.729

>  <PC->
-5.73

>  <Q_PC+>
5.729

>  <Q_PC->
-5.73

>  <Q_RPC+>
0.114505

>  <Q_RPC->
0.115183

>  <Q_VSA_FHYD>
0.627733

>  <Q_VSA_FNEG>
0.455132

>  <Q_VSA_FPNEG>
0.147921

>  <Q_VSA_FPOL>
0.372267

>  <Q_VSA_FPOS>
0.544868

>  <Q_VSA_FPPOS>
0.224346

>  <Q_VSA_HYD>
267.902

>  <Q_VSA_NEG>
194.24

>  <Q_VSA_PNEG>
63.1293

>  <Q_VSA_POL>
158.875

>  <Q_VSA_POS>
232.537

>  <Q_VSA_PPOS>
95.7459

>  <RPC+>
0.114505

>  <RPC->
0.115183

>  <lip_acc>
7

>  <lip_don>
1

>  <lip_druglike>
1

>  <lip_violation>
0

>  <opr_brigid>
28

>  <opr_leadlike>
0

>  <opr_nring>
5

>  <opr_nrot>
6

>  <opr_violation>
2

>  <E>
120.374

>  <E_ang>
7.40613

>  <E_ele>
34.2379

>  <E_nb>
93.2665

>  <E_oop>
0.0477587

>  <E_sol>
-16.4331

>  <E_stb>
0.543772

>  <E_str>
7.59875

>  <E_strain>
0.00601903

>  <E_tor>
11.511

>  <E_vdw>
59.0286

>  <E_rele>
0

>  <E_rnb>
-1.7053e-013

>  <E_rsol>
-1.7053e-013

>  <E_rvdw>
0

>  <Kier1>
25.6413

>  <Kier2>
11.5885

>  <Kier3>
5.49584

>  <KierA1>
17.2785

>  <KierA2>
7.70746

>  <KierA3>
3.62173

>  <KierFlex>
3.91687

>  <logS>
-5.49281

>  <MNDO_dipole>
6.36402

>  <MNDO_E>
-135897

>  <MNDO_Eele>
-1.07508e+006

>  <MNDO_HF>
-4.55436

>  <MNDO_HOMO>
-8.9597

>  <MNDO_IP>
8.9597

>  <MNDO_LUMO>
-0.82557

>  <apol>
67.1257

>  <bpol>
32.9743

>  <mr>
12.6833

>  <dipole>
1.6804

>  <dipoleX>
0.765939

>  <dipoleY>
-1.15958

>  <dipoleZ>
0.944694

>  <pmi>
12195.3

>  <pmiX>
7920.64

>  <pmiY>
3115.14

>  <pmiZ>
1159.54

>  <rgyr>
5.16877

>  <a_acc>
4

>  <a_acid>
0

>  <a_base>
0

>  <a_don>
1

>  <a_hyd>
24

>  <vsa_acc>
46.3833

>  <vsa_acid>
0

>  <vsa_base>
0

>  <vsa_don>
5.68258

>  <vsa_hyd>
323.045

>  <vsa_other>
34.3576

>  <vsa_pol>
52.0659

>  <PM3_dipole>
5.62594

>  <PM3_E>
-123893

>  <PM3_Eele>
-1.06065e+006

>  <PM3_HF>
-35.6618

>  <PM3_HOMO>
-8.89606

>  <PM3_IP>
8.89606

>  <PM3_LUMO>
-0.92813

>  <SlogP>
3.5363

>  <SlogP_VSA0>
0

>  <SlogP_VSA1>
39.2393

>  <SlogP_VSA2>
49.7688

>  <SlogP_VSA3>
73.7583

>  <SlogP_VSA4>
54.0956

>  <SlogP_VSA5>
0

>  <SlogP_VSA6>
0

>  <SlogP_VSA7>
221.52

>  <SlogP_VSA8>
0

>  <SlogP_VSA9>
14.9601

>  <SMR>
12.4744

>  <SMR_VSA0>
71.5866

>  <SMR_VSA1>
37.9943

>  <SMR_VSA2>
25.9065

>  <SMR_VSA3>
6.37115

>  <SMR_VSA4>
11.0883

>  <SMR_VSA5>
210.432

>  <SMR_VSA6>
89.9635

>  <SMR_VSA7>
0

>  <ASA>
731.402

>  <ASA+>
339.361

>  <ASA->
285.228

>  <ASA_H>
568.417

>  <ASA_P>
162.985

>  <CASA+>
1944.2

>  <CASA->
1634.36

>  <DASA>
54.1327

>  <DCASA>
309.841

>  <FASA+>
0.463987

>  <FASA->
0.389974

>  <FASA_H>
0.777161

>  <FASA_P>
0.222839

>  <FCASA+>
2.65818

>  <FCASA->
2.23455

>  <VSA>
458.125

>  <TPSA>
86.37

>  <density>
0.767598

>  <vdw_area>
426.777

>  <vdw_vol>
594.682

>  <vsurf_A>
2.90162

>  <vsurf_CP>
0.110302

>  <vsurf_CW1>
2.64216

>  <vsurf_CW2>
2.16805

>  <vsurf_CW3>
1.36778

>  <vsurf_CW4>
0.643478

>  <vsurf_CW5>
0.281519

>  <vsurf_CW6>
0.0890854

>  <vsurf_CW7>
0.00291875

>  <vsurf_CW8>
0

>  <vsurf_D1>
1008.63

>  <vsurf_D2>
602.875

>  <vsurf_D3>
448.875

>  <vsurf_D4>
382.125

>  <vsurf_D5>
328.875

>  <vsurf_D6>
270.25

>  <vsurf_D7>
167.25

>  <vsurf_D8>
92.25

>  <vsurf_DD12>
3.77492

>  <vsurf_DD13>
3.77492

>  <vsurf_DD23>
0.707107

>  <vsurf_DW12>
5.33854

>  <vsurf_DW13>
5.24404

>  <vsurf_DW23>
0.707107

>  <vsurf_EDmin1>
-2.78949

>  <vsurf_EDmin2>
-2.70512

>  <vsurf_EDmin3>
-2.68367

>  <vsurf_EWmin1>
-5.25768

>  <vsurf_EWmin2>
-5.20528

>  <vsurf_EWmin3>
-5.18172

>  <vsurf_G>
1.40337

>  <vsurf_HB1>
401.25

>  <vsurf_HB2>
457

>  <vsurf_HB3>
390.625

>  <vsurf_HB4>
153.875

>  <vsurf_HB5>
52.75

>  <vsurf_HB6>
12.875

>  <vsurf_HB7>
0.875

>  <vsurf_HB8>
0

>  <vsurf_HL1>
0.132832

>  <vsurf_HL2>
0.0395813

>  <vsurf_ID1>
1.34768

>  <vsurf_ID2>
1.26617

>  <vsurf_ID3>
1.36009

>  <vsurf_ID4>
1.59977

>  <vsurf_ID5>
1.77678

>  <vsurf_ID6>
1.7731

>  <vsurf_ID7>
1.05768

>  <vsurf_ID8>
0.957208

>  <vsurf_IW1>
0.376255

>  <vsurf_IW2>
0.73821

>  <vsurf_IW3>
1.22859

>  <vsurf_IW4>
1.73771

>  <vsurf_IW5>
1.62902

>  <vsurf_IW6>
1.60237

>  <vsurf_IW7>
4.16806

>  <vsurf_IW8>
0

>  <vsurf_R>
1.45878

>  <vsurf_S>
665.194

>  <vsurf_V>
970.375

>  <vsurf_W1>
1627.5

>  <vsurf_W2>
978

>  <vsurf_W3>
492.125

>  <vsurf_W4>
169.875

>  <vsurf_W5>
59.625

>  <vsurf_W6>
15.125

>  <vsurf_W7>
0.875

>  <vsurf_W8>
0

>  <vsurf_Wp1>
1226.25

>  <vsurf_Wp2>
521

>  <vsurf_Wp3>
101.5

>  <vsurf_Wp4>
16

>  <vsurf_Wp5>
6.875

>  <vsurf_Wp6>
2.25

>  <vsurf_Wp7>
0

>  <vsurf_Wp8>
0

>  <dens>
1.0817

>  <glob>
0.0645015

>  <std_dim1>
4.79209

>  <std_dim2>
2.23191

>  <std_dim3>
1.21705

>  <vol>
422

>  <logP(o/w)>
2.959

$$$$
D13.cdx
  MOE2008           3D

 53 57  0  0  0  0  0  0  0  0999 V2000
   -6.5890    2.6750   -0.3760 C   0  0  0  0  0  0  0  0  0  0  0  0
   -7.5080    3.2270   -0.5510 H   0  0  0  0  0  0  0  0  0  0  0  0
   -6.4860    1.3420   -0.7610 C   0  0  0  0  0  0  0  0  0  0  0  0
   -7.3440    0.8690   -1.2350 H   0  0  0  0  0  0  0  0  0  0  0  0
   -5.3120    0.6010   -0.5380 C   0  0  0  0  0  0  0  0  0  0  0  0
   -4.2400    1.2790    0.0830 C   0  0  0  0  0  0  0  0  0  0  0  0
   -4.3070    2.6220    0.4770 C   0  0  0  0  0  0  0  0  0  0  0  0
   -5.5120    3.3160    0.2380 C   0  0  0  0  0  0  0  0  0  0  0  0
   -2.9790    0.8320    0.4090 N   0  0  0  0  0  0  0  0  0  0  0  0
   -2.6460   -0.1060    0.2310 H   0  0  0  0  0  0  0  0  0  0  0  0
   -2.2560    1.8270    1.0030 C   0  0  0  0  0  0  0  0  0  0  0  0
   -1.2420    1.6350    1.3300 H   0  0  0  0  0  0  0  0  0  0  0  0
   -3.0390    2.9660    1.0620 C   0  0  0  0  0  0  0  0  0  0  0  0
   -2.6010    4.2450    1.6140 C   0  0  0  0  0  0  0  0  0  0  0  0
   -1.2160    4.3610    2.2260 C   0  0  0  0  0  0  0  0  0  0  0  0
   -0.1810    4.7380    1.3720 N   0  0  0  0  0  0  0  0  0  0  0  0
    1.1830    4.8090    1.8960 C   0  0  0  0  0  0  0  0  0  0  0  0
    1.3360    5.8410    2.2360 H   0  0  0  0  0  0  0  0  0  0  0  0
    1.2880    4.1560    2.7690 H   0  0  0  0  0  0  0  0  0  0  0  0
    2.2260    4.4430    0.8350 C   0  0  0  0  0  0  0  0  0  0  0  0
    2.0940    3.3970    0.5390 H   0  0  0  0  0  0  0  0  0  0  0  0
    3.2330    4.5570    1.2480 H   0  0  0  0  0  0  0  0  0  0  0  0
    2.0960    5.2510   -0.3870 N   0  0  0  0  0  0  0  0  0  0  0  0
    0.7940    5.8820   -0.6250 C   0  0  0  0  0  0  0  0  0  0  0  0
    0.8360    6.8700   -0.1510 H   0  0  0  0  0  0  0  0  0  0  0  0
    0.6430    6.0410   -1.6980 H   0  0  0  0  0  0  0  0  0  0  0  0
   -0.3700    5.0740   -0.0460 C   0  0  0  0  0  0  0  0  0  0  0  0
   -0.4650    4.1220   -0.5820 H   0  0  0  0  0  0  0  0  0  0  0  0
   -1.3070    5.6240   -0.1740 H   0  0  0  0  0  0  0  0  0  0  0  0
    3.1200    5.4800   -1.3050 C   0  0  0  0  0  0  0  0  0  0  0  0
    4.4070    4.7710   -1.1270 C   0  0  0  0  0  0  0  0  0  0  0  0
   -3.2820    5.2660    1.6080 O   0  0  0  0  0  0  0  0  0  0  0  0
   -1.0970    4.0980    3.4170 O   0  0  0  0  0  0  0  0  0  0  0  0
    3.0310    6.2510   -2.2560 O   0  0  0  0  0  0  0  0  0  0  0  0
   -5.6670    4.6010    0.5840 F   0  0  0  0  0  0  0  0  0  0  0  0
    4.4700    3.3760   -1.2070 C   0  0  0  0  0  0  0  0  0  0  0  0
    3.5750    2.7900   -1.3930 H   0  0  0  0  0  0  0  0  0  0  0  0
    5.7000    2.7350   -1.0600 C   0  0  0  0  0  0  0  0  0  0  0  0
    5.7610    1.6510   -1.1170 H   0  0  0  0  0  0  0  0  0  0  0  0
    6.8590    3.4850   -0.8500 C   0  0  0  0  0  0  0  0  0  0  0  0
    7.8170    2.9830   -0.7400 H   0  0  0  0  0  0  0  0  0  0  0  0
    6.7950    4.8790   -0.7950 C   0  0  0  0  0  0  0  0  0  0  0  0
    7.7020    5.4590   -0.6460 H   0  0  0  0  0  0  0  0  0  0  0  0
    5.5680    5.5270   -0.9410 C   0  0  0  0  0  0  0  0  0  0  0  0
    5.5200    6.6130   -0.9100 H   0  0  0  0  0  0  0  0  0  0  0  0
   -5.2280   -0.7970   -0.9680 C   0  0  0  0  0  0  0  0  0  0  0  0
   -5.5150   -1.3340   -2.2100 C   0  0  0  0  0  0  0  0  0  0  0  0
   -5.8320   -0.7370   -3.0580 H   0  0  0  0  0  0  0  0  0  0  0  0
   -5.3400   -2.7470   -2.2520 C   0  0  0  0  0  0  0  0  0  0  0  0
   -5.5070   -3.3630   -3.1270 H   0  0  0  0  0  0  0  0  0  0  0  0
   -4.9360   -3.2510   -1.0370 C   0  0  0  0  0  0  0  0  0  0  0  0
   -4.7350   -4.2830   -0.7830 H   0  0  0  0  0  0  0  0  0  0  0  0
   -4.7700   -2.0250    0.1420 S   0  0  0  0  0  0  0  0  0  0  0  0
  1  2  1  0  0  0  0
  1  3  1  0  0  0  0
  1  8  2  0  0  0  0
  3  4  1  0  0  0  0
  3  5  2  0  0  0  0
  5  6  1  0  0  0  0
  5 46  1  0  0  0  0
  6  7  2  0  0  0  0
  6  9  1  0  0  0  0
  7  8  1  0  0  0  0
  7 13  1  0  0  0  0
  8 35  1  0  0  0  0
  9 10  1  0  0  0  0
  9 11  1  0  0  0  0
 11 12  1  0  0  0  0
 11 13  2  0  0  0  0
 13 14  1  0  0  0  0
 14 15  1  0  0  0  0
 14 32  2  0  0  0  0
 15 16  1  0  0  0  0
 15 33  2  0  0  0  0
 16 17  1  0  0  0  0
 16 27  1  0  0  0  0
 17 18  1  0  0  0  0
 17 19  1  0  0  0  0
 17 20  1  0  0  0  0
 20 21  1  0  0  0  0
 20 22  1  0  0  0  0
 20 23  1  0  0  0  0
 23 24  1  0  0  0  0
 23 30  1  0  0  0  0
 24 25  1  0  0  0  0
 24 26  1  0  0  0  0
 24 27  1  0  0  0  0
 27 28  1  0  0  0  0
 27 29  1  0  0  0  0
 30 31  1  0  0  0  0
 30 34  2  0  0  0  0
 31 36  1  0  0  0  0
 31 44  2  0  0  0  0
 36 37  1  0  0  0  0
 36 38  2  0  0  0  0
 38 39  1  0  0  0  0
 38 40  1  0  0  0  0
 40 41  1  0  0  0  0
 40 42  2  0  0  0  0
 42 43  1  0  0  0  0
 42 44  1  0  0  0  0
 44 45  1  0  0  0  0
 46 47  2  0  0  0  0
 46 53  1  0  0  0  0
 47 48  1  0  0  0  0
 47 49  1  0  0  0  0
 49 50  1  0  0  0  0
 49 51  2  0  0  0  0
 51 52  1  0  0  0  0
 51 53  1  0  0  0  0
M  END
>  <Activity>
10.2218

>  <AM1_dipole>
6.46784

>  <AM1_E>
-132248

>  <AM1_Eele>
-1.04266e+006

>  <AM1_HF>
-7.54579

>  <AM1_HOMO>
-8.64739

>  <AM1_IP>
8.64739

>  <AM1_LUMO>
-0.89765

>  <diameter>
17

>  <petitjean>
0.470588

>  <petitjeanSC>
0.888889

>  <radius>
9

>  <VDistEq>
3.84292

>  <VDistMa>
9.77179

>  <weinerPath>
3443

>  <weinerPol>
56

>  <BCUT_PEOE_0>
-2.71188

>  <BCUT_PEOE_1>
-0.631452

>  <BCUT_PEOE_2>
0.664703

>  <BCUT_PEOE_3>
2.65029

>  <BCUT_SLOGP_0>
-2.86001

>  <BCUT_SLOGP_1>
-0.522566

>  <BCUT_SLOGP_2>
0.788007

>  <BCUT_SLOGP_3>
2.50392

>  <BCUT_SMR_0>
-2.43203

>  <BCUT_SMR_1>
-0.446387

>  <BCUT_SMR_2>
0.830775

>  <BCUT_SMR_3>
2.92027

>  <GCUT_PEOE_0>
-0.858674

>  <GCUT_PEOE_1>
-0.39979

>  <GCUT_PEOE_2>
0.0784393

>  <GCUT_PEOE_3>
2.70588

>  <GCUT_SLOGP_0>
-0.976489

>  <GCUT_SLOGP_1>
-0.299702

>  <GCUT_SLOGP_2>
0.205271

>  <GCUT_SLOGP_3>
2.73337

>  <GCUT_SMR_0>
-0.508914

>  <GCUT_SMR_1>
-0.208857

>  <GCUT_SMR_2>
0.220852

>  <GCUT_SMR_3>
2.9904

>  <a_aro>
20

>  <a_count>
53

>  <a_IC>
91.535

>  <a_ICM>
1.72708

>  <a_nH>
20

>  <b_1rotN>
6

>  <b_1rotR>
0.162162

>  <b_ar>
21

>  <b_count>
57

>  <b_double>
3

>  <b_rotN>
6

>  <b_rotR>
0.162162

>  <b_single>
33

>  <b_triple>
0

>  <chi0v>
18.4012

>  <chi0v_C>
14.1793

>  <chi1v>
11.437

>  <chi1v_C>
7.06538

>  <chiral>
0

>  <chiral_u>
0

>  <nmol>
1

>  <reactive>
0

>  <rings>
5

>  <Weight>
461.517

>  <a_heavy>
33

>  <a_nB>
0

>  <a_nBr>
0

>  <a_nC>
25

>  <a_nCl>
0

>  <a_nF>
1

>  <a_nI>
0

>  <a_nN>
3

>  <a_nO>
3

>  <a_nP>
0

>  <a_nS>
1

>  <b_heavy>
37

>  <chi0>
22.949

>  <chi0_C>
16.3801

>  <chi1>
16.0417

>  <chi1_C>
9.61616

>  <FCharge>
0

>  <VAdjEq>
0.358235

>  <VAdjMa>
6.20945

>  <zagreb>
180

>  <balabanJ>
1.1637

>  <PEOE_PC+>
2.72386

>  <PEOE_PC->
-2.72386

>  <PEOE_RPC+>
0.108339

>  <PEOE_RPC->
0.131955

>  <PEOE_VSA+0>
78.1977

>  <PEOE_VSA+1>
85.685

>  <PEOE_VSA+2>
9.02085

>  <PEOE_VSA+3>
28.3796

>  <PEOE_VSA+4>
0

>  <PEOE_VSA+5>
34.3576

>  <PEOE_VSA+6>
0

>  <PEOE_VSA-0>
38.9733

>  <PEOE_VSA-1>
77.714

>  <PEOE_VSA-2>
14.231

>  <PEOE_VSA-3>
0

>  <PEOE_VSA-4>
11.9086

>  <PEOE_VSA-5>
40.7008

>  <PEOE_VSA-6>
0.136891

>  <PEOE_VSA_FHYD>
0.792266

>  <PEOE_VSA_FNEG>
0.438021

>  <PEOE_VSA_FPNEG>
0.125794

>  <PEOE_VSA_FPOL>
0.207734

>  <PEOE_VSA_FPOS>
0.561979

>  <PEOE_VSA_FPPOS>
0.0819393

>  <PEOE_VSA_HYD>
332.201

>  <PEOE_VSA_NEG>
183.665

>  <PEOE_VSA_PNEG>
52.7463

>  <PEOE_VSA_POL>
87.1039

>  <PEOE_VSA_POS>
235.641

>  <PEOE_VSA_PPOS>
34.3576

>  <PC+>
5.312

>  <PC->
-5.313

>  <Q_PC+>
5.312

>  <Q_PC->
-5.313

>  <Q_RPC+>
0.123494

>  <Q_RPC->
0.124224

>  <Q_VSA_FHYD>
0.634651

>  <Q_VSA_FNEG>
0.540737

>  <Q_VSA_FPNEG>
0.137004

>  <Q_VSA_FPOL>
0.365349

>  <Q_VSA_FPOS>
0.459263

>  <Q_VSA_FPPOS>
0.228344

>  <Q_VSA_HYD>
266.113

>  <Q_VSA_NEG>
226.734

>  <Q_VSA_PNEG>
57.4467

>  <Q_VSA_POL>
153.193

>  <Q_VSA_POS>
192.572

>  <Q_VSA_PPOS>
95.7459

>  <RPC+>
0.123494

>  <RPC->
0.124224

>  <lip_acc>
6

>  <lip_don>
1

>  <lip_druglike>
1

>  <lip_violation>
0

>  <opr_brigid>
27

>  <opr_leadlike>
0

>  <opr_nring>
5

>  <opr_nrot>
6

>  <opr_violation>
2

>  <E>
106.213

>  <E_ang>
9.74814

>  <E_ele>
33.3696

>  <E_nb>
80.7208

>  <E_oop>
0.0663314

>  <E_sol>
-18.8346

>  <E_stb>
0.260553

>  <E_str>
6.72918

>  <E_strain>
0.00481049

>  <E_tor>
8.68767

>  <E_vdw>
47.3512

>  <E_rele>
0

>  <E_rnb>
-2.13163e-014

>  <E_rsol>
-2.13163e-014

>  <E_rvdw>
0

>  <Kier1>
24.6837

>  <Kier2>
10.9477

>  <Kier3>
5.12

>  <KierA1>
17.8534

>  <KierA2>
7.83212

>  <KierA3>
3.6338

>  <KierFlex>
4.23727

>  <logS>
-6.3735

>  <MNDO_dipole>
7.46688

>  <MNDO_E>
-133120

>  <MNDO_Eele>
-1.0349e+006

>  <MNDO_HF>
-32.1774

>  <MNDO_HOMO>
-8.91161

>  <MNDO_IP>
8.91161

>  <MNDO_LUMO>
-0.79672

>  <apol>
66.4989

>  <bpol>
32.8411

>  <mr>
12.725

>  <dipole>
1.86677

>  <dipoleX>
0.683708

>  <dipoleY>
-1.65334

>  <dipoleZ>
-0.532773

>  <pmi>
12164.9

>  <pmiX>
7949.08

>  <pmiY>
3396.26

>  <pmiZ>
819.597

>  <rgyr>
5.13406

>  <a_acc>
3

>  <a_acid>
0

>  <a_base>
0

>  <a_don>
1

>  <a_hyd>
24

>  <vsa_acc>
40.7008

>  <vsa_acid>
0

>  <vsa_base>
0

>  <vsa_don>
5.68258

>  <vsa_hyd>
321.967

>  <vsa_other>
34.3576

>  <vsa_pol>
46.3833

>  <PM3_dipole>
7.31612

>  <PM3_E>
-121351

>  <PM3_Eele>
-1.02426e+006

>  <PM3_HF>
-31.4364

>  <PM3_HOMO>
-8.82347

>  <PM3_IP>
8.82347

>  <PM3_LUMO>
-1.0407

>  <SlogP>
4.2028

>  <SlogP_VSA0>
0

>  <SlogP_VSA1>
22.4538

>  <SlogP_VSA2>
49.7688

>  <SlogP_VSA3>
73.7583

>  <SlogP_VSA4>
54.0956

>  <SlogP_VSA5>
0

>  <SlogP_VSA6>
0

>  <SlogP_VSA7>
201.08

>  <SlogP_VSA8>
0

>  <SlogP_VSA9>
46.2378

>  <SMR>
12.4826

>  <SMR_VSA0>
71.5866

>  <SMR_VSA1>
21.2087

>  <SMR_VSA2>
25.9065

>  <SMR_VSA3>
6.37115

>  <SMR_VSA4>
9.26108

>  <SMR_VSA5>
191.819

>  <SMR_VSA6>
89.9635

>  <SMR_VSA7>
31.2777

>  <ASA>
719.427

>  <ASA+>
277.634

>  <ASA->
334.58

>  <ASA_H>
578.915

>  <ASA_P>
140.513

>  <CASA+>
1474.79

>  <CASA->
1777.62

>  <DASA>
56.946

>  <DCASA>
302.832

>  <FASA+>
0.38591

>  <FASA->
0.465064

>  <FASA_H>
0.804688

>  <FASA_P>
0.195312

>  <FCASA+>
2.04995

>  <FCASA->
2.47089

>  <VSA>
448.875

>  <TPSA>
73.48

>  <density>
0.791374

>  <vdw_area>
419.305

>  <vdw_vol>
583.184

>  <vsurf_A>
4.38204

>  <vsurf_CP>
0.138721

>  <vsurf_CW1>
2.60954

>  <vsurf_CW2>
2.09806

>  <vsurf_CW3>
1.28269

>  <vsurf_CW4>
0.581866

>  <vsurf_CW5>
0.233898

>  <vsurf_CW6>
0.0650121

>  <vsurf_CW7>
0.00204218

>  <vsurf_CW8>
0

>  <vsurf_D1>
1047.5

>  <vsurf_D2>
619.5

>  <vsurf_D3>
462.75

>  <vsurf_D4>
394.125

>  <vsurf_D5>
341.875

>  <vsurf_D6>
281.625

>  <vsurf_D7>
164

>  <vsurf_D8>
90.625

>  <vsurf_DD12>
1.11803

>  <vsurf_DD13>
0.707107

>  <vsurf_DD23>
0.866025

>  <vsurf_DW12>
5.02494

>  <vsurf_DW13>
0.707107

>  <vsurf_DW23>
5.54527

>  <vsurf_EDmin1>
-2.76593

>  <vsurf_EDmin2>
-2.71068

>  <vsurf_EDmin3>
-2.67653

>  <vsurf_EWmin1>
-5.32266

>  <vsurf_EWmin2>
-5.20698

>  <vsurf_EWmin3>
-5.16811

>  <vsurf_G>
1.3921

>  <vsurf_HB1>
342

>  <vsurf_HB2>
390.625

>  <vsurf_HB3>
350.5

>  <vsurf_HB4>
133.875

>  <vsurf_HB5>
40.75

>  <vsurf_HB6>
9.375

>  <vsurf_HB7>
0.75

>  <vsurf_HB8>
0

>  <vsurf_HL1>
0.099946

>  <vsurf_HL2>
0.0279099

>  <vsurf_ID1>
1.39736

>  <vsurf_ID2>
1.35155

>  <vsurf_ID3>
1.50921

>  <vsurf_ID4>
1.73887

>  <vsurf_ID5>
1.90347

>  <vsurf_ID6>
1.84127

>  <vsurf_ID7>
1.12768

>  <vsurf_ID8>
0.65948

>  <vsurf_IW1>
0.274404

>  <vsurf_IW2>
0.984015

>  <vsurf_IW3>
1.7276

>  <vsurf_IW4>
2.57437

>  <vsurf_IW5>
2.96809

>  <vsurf_IW6>
3.208

>  <vsurf_IW7>
4.66022

>  <vsurf_IW8>
0

>  <vsurf_R>
1.4666

>  <vsurf_S>
656.281

>  <vsurf_V>
962.5

>  <vsurf_W1>
1556.75

>  <vsurf_W2>
907.25

>  <vsurf_W3>
448.625

>  <vsurf_W4>
147.25

>  <vsurf_W5>
46.25

>  <vsurf_W6>
11

>  <vsurf_W7>
0.75

>  <vsurf_W8>
0

>  <vsurf_Wp1>
1214.75

>  <vsurf_Wp2>
516.625

>  <vsurf_Wp3>
98.125

>  <vsurf_Wp4>
13.375

>  <vsurf_Wp5>
5.5

>  <vsurf_Wp6>
1.625

>  <vsurf_Wp7>
0

>  <vsurf_Wp8>
0

>  <dens>
1.10642

>  <glob>
0.0627468

>  <std_dim1>
4.75024

>  <std_dim2>
2.20418

>  <std_dim3>
1.1899

>  <vol>
417.125

>  <logP(o/w)>
3.722

$$$$
D13.cdx
  MOE2008           3D

 53 57  0  0  0  0  0  0  0  0999 V2000
   -5.6280   -1.9910    0.5220 C   0  0  0  0  0  0  0  0  0  0  0  0
   -6.5190   -1.3860    0.6660 H   0  0  0  0  0  0  0  0  0  0  0  0
   -5.5590   -3.2770    1.0480 C   0  0  0  0  0  0  0  0  0  0  0  0
   -6.4120   -3.6650    1.6020 H   0  0  0  0  0  0  0  0  0  0  0  0
   -4.4200   -4.0760    0.8630 C   0  0  0  0  0  0  0  0  0  0  0  0
   -3.3470   -3.5180    0.1400 C   0  0  0  0  0  0  0  0  0  0  0  0
   -3.3820   -2.2260   -0.4000 C   0  0  0  0  0  0  0  0  0  0  0  0
   -4.5540   -1.4640   -0.1980 C   0  0  0  0  0  0  0  0  0  0  0  0
   -2.1140   -4.0470   -0.1680 N   0  0  0  0  0  0  0  0  0  0  0  0
   -1.8020   -4.9680    0.1110 H   0  0  0  0  0  0  0  0  0  0  0  0
   -1.3800   -3.1540   -0.8960 C   0  0  0  0  0  0  0  0  0  0  0  0
   -0.3840   -3.4190   -1.2300 H   0  0  0  0  0  0  0  0  0  0  0  0
   -2.1260   -2.0010   -1.0630 C   0  0  0  0  0  0  0  0  0  0  0  0
   -1.6690   -0.8120   -1.7760 C   0  0  0  0  0  0  0  0  0  0  0  0
   -0.2870   -0.8000   -2.4050 C   0  0  0  0  0  0  0  0  0  0  0  0
    0.7560   -0.3020   -1.6250 N   0  0  0  0  0  0  0  0  0  0  0  0
    2.1160   -0.3130   -2.1640 C   0  0  0  0  0  0  0  0  0  0  0  0
    2.2140   -1.0940   -2.9260 H   0  0  0  0  0  0  0  0  0  0  0  0
    2.2650    0.6530   -2.6620 H   0  0  0  0  0  0  0  0  0  0  0  0
    3.1680   -0.5100   -1.0690 C   0  0  0  0  0  0  0  0  0  0  0  0
    4.1710   -0.4620   -1.5030 H   0  0  0  0  0  0  0  0  0  0  0  0
    3.0390   -1.4980   -0.6110 H   0  0  0  0  0  0  0  0  0  0  0  0
    3.0470    0.4790    0.0130 N   0  0  0  0  0  0  0  0  0  0  0  0
    1.7450    1.1350    0.1650 C   0  0  0  0  0  0  0  0  0  0  0  0
    1.6020    1.4550    1.2030 H   0  0  0  0  0  0  0  0  0  0  0  0
    1.7780    2.0390   -0.4540 H   0  0  0  0  0  0  0  0  0  0  0  0
    0.5780    0.2450   -0.2730 C   0  0  0  0  0  0  0  0  0  0  0  0
   -0.3590    0.8060   -0.2190 H   0  0  0  0  0  0  0  0  0  0  0  0
    0.4920   -0.6150    0.4010 H   0  0  0  0  0  0  0  0  0  0  0  0
    4.0790    0.8520    0.8720 C   0  0  0  0  0  0  0  0  0  0  0  0
    5.3670    0.1270    0.7950 C   0  0  0  0  0  0  0  0  0  0  0  0
   -2.3320    0.2130   -1.8990 O   0  0  0  0  0  0  0  0  0  0  0  0
   -0.1760   -1.2450   -3.5420 O   0  0  0  0  0  0  0  0  0  0  0  0
    3.9970    1.7630    1.6910 O   0  0  0  0  0  0  0  0  0  0  0  0
   -4.6760   -0.2180   -0.6770 F   0  0  0  0  0  0  0  0  0  0  0  0
    5.4350   -1.2390    1.0890 C   0  0  0  0  0  0  0  0  0  0  0  0
    4.5440   -1.7910    1.3730 H   0  0  0  0  0  0  0  0  0  0  0  0
    6.6660   -1.8930    1.0320 C   0  0  0  0  0  0  0  0  0  0  0  0
    6.7310   -2.9550    1.2560 H   0  0  0  0  0  0  0  0  0  0  0  0
    7.8210   -1.1820    0.6970 C   0  0  0  0  0  0  0  0  0  0  0  0
    8.7790   -1.6940    0.6570 H   0  0  0  0  0  0  0  0  0  0  0  0
    7.7520    0.1860    0.4280 C   0  0  0  0  0  0  0  0  0  0  0  0
    8.6560    0.7370    0.1810 H   0  0  0  0  0  0  0  0  0  0  0  0
    6.5250    0.8470    0.4820 C   0  0  0  0  0  0  0  0  0  0  0  0
    6.4730    1.9140    0.2840 H   0  0  0  0  0  0  0  0  0  0  0  0
   -4.3740   -5.4140    1.4250 C   0  0  0  0  0  0  0  0  0  0  0  0
   -4.4420   -5.7820    2.8040 C   0  0  0  0  0  0  0  0  0  0  0  0
   -4.5280   -5.0810    3.6250 H   0  0  0  0  0  0  0  0  0  0  0  0
   -4.3740   -7.1460    2.9820 C   0  0  0  0  0  0  0  0  0  0  0  0
   -4.3990   -7.6940    3.9140 H   0  0  0  0  0  0  0  0  0  0  0  0
   -4.2410   -7.9830    1.4960 S   0  0  0  0  0  0  0  0  0  0  0  0
   -4.2770   -6.5200    0.6050 C   0  0  0  0  0  0  0  0  0  0  0  0
   -4.2340   -6.5540   -0.4760 H   0  0  0  0  0  0  0  0  0  0  0  0
  1  2  1  0  0  0  0
  1  3  1  0  0  0  0
  1  8  2  0  0  0  0
  3  4  1  0  0  0  0
  3  5  2  0  0  0  0
  5  6  1  0  0  0  0
  5 46  1  0  0  0  0
  6  7  2  0  0  0  0
  6  9  1  0  0  0  0
  7  8  1  0  0  0  0
  7 13  1  0  0  0  0
  8 35  1  0  0  0  0
  9 10  1  0  0  0  0
  9 11  1  0  0  0  0
 11 12  1  0  0  0  0
 11 13  2  0  0  0  0
 13 14  1  0  0  0  0
 14 15  1  0  0  0  0
 14 32  2  0  0  0  0
 15 16  1  0  0  0  0
 15 33  2  0  0  0  0
 16 17  1  0  0  0  0
 16 27  1  0  0  0  0
 17 18  1  0  0  0  0
 17 19  1  0  0  0  0
 17 20  1  0  0  0  0
 20 21  1  0  0  0  0
 20 22  1  0  0  0  0
 20 23  1  0  0  0  0
 23 24  1  0  0  0  0
 23 30  1  0  0  0  0
 24 25  1  0  0  0  0
 24 26  1  0  0  0  0
 24 27  1  0  0  0  0
 27 28  1  0  0  0  0
 27 29  1  0  0  0  0
 30 31  1  0  0  0  0
 30 34  2  0  0  0  0
 31 36  1  0  0  0  0
 31 44  2  0  0  0  0
 36 37  1  0  0  0  0
 36 38  2  0  0  0  0
 38 39  1  0  0  0  0
 38 40  1  0  0  0  0
 40 41  1  0  0  0  0
 40 42  2  0  0  0  0
 42 43  1  0  0  0  0
 42 44  1  0  0  0  0
 44 45  1  0  0  0  0
 46 47  1  0  0  0  0
 46 52  2  0  0  0  0
 47 48  1  0  0  0  0
 47 49  2  0  0  0  0
 49 50  1  0  0  0  0
 49 51  1  0  0  0  0
 51 52  1  0  0  0  0
 52 53  1  0  0  0  0
M  END
>  <Activity>
11

>  <AM1_dipole>
7.16593

>  <AM1_E>
-132249

>  <AM1_Eele>
-1.04234e+006

>  <AM1_HF>
-8.27788

>  <AM1_HOMO>
-8.55952

>  <AM1_IP>
8.55952

>  <AM1_LUMO>
-0.74089

>  <diameter>
17

>  <petitjean>
0.470588

>  <petitjeanSC>
0.888889

>  <radius>
9

>  <VDistEq>
3.84292

>  <VDistMa>
9.77179

>  <weinerPath>
3443

>  <weinerPol>
56

>  <BCUT_PEOE_0>
-2.71188

>  <BCUT_PEOE_1>
-0.644556

>  <BCUT_PEOE_2>
0.665177

>  <BCUT_PEOE_3>
2.6503

>  <BCUT_SLOGP_0>
-2.86001

>  <BCUT_SLOGP_1>
-0.555215

>  <BCUT_SLOGP_2>
0.788604

>  <BCUT_SLOGP_3>
2.5039

>  <BCUT_SMR_0>
-2.43203

>  <BCUT_SMR_1>
-0.473923

>  <BCUT_SMR_2>
0.8321

>  <BCUT_SMR_3>
2.92027

>  <GCUT_PEOE_0>
-0.858558

>  <GCUT_PEOE_1>
-0.42708

>  <GCUT_PEOE_2>
0.078696

>  <GCUT_PEOE_3>
2.70912

>  <GCUT_SLOGP_0>
-0.976489

>  <GCUT_SLOGP_1>
-0.299032

>  <GCUT_SLOGP_2>
0.205719

>  <GCUT_SLOGP_3>
2.73598

>  <GCUT_SMR_0>
-0.508915

>  <GCUT_SMR_1>
-0.215285

>  <GCUT_SMR_2>
0.221179

>  <GCUT_SMR_3>
2.99278

>  <a_aro>
20

>  <a_count>
53

>  <a_IC>
91.535

>  <a_ICM>
1.72708

>  <a_nH>
20

>  <b_1rotN>
6

>  <b_1rotR>
0.162162

>  <b_ar>
21

>  <b_count>
57

>  <b_double>
3

>  <b_rotN>
6

>  <b_rotR>
0.162162

>  <b_single>
33

>  <b_triple>
0

>  <chi0v>
18.4012

>  <chi0v_C>
14.1793

>  <chi1v>
11.4871

>  <chi1v_C>
7.02073

>  <chiral>
0

>  <chiral_u>
0

>  <nmol>
1

>  <reactive>
0

>  <rings>
5

>  <Weight>
461.517

>  <a_heavy>
33

>  <a_nB>
0

>  <a_nBr>
0

>  <a_nC>
25

>  <a_nCl>
0

>  <a_nF>
1

>  <a_nI>
0

>  <a_nN>
3

>  <a_nO>
3

>  <a_nP>
0

>  <a_nS>
1

>  <b_heavy>
37

>  <chi0>
22.949

>  <chi0_C>
16.3801

>  <chi1>
16.0417

>  <chi1_C>
9.5244

>  <FCharge>
0

>  <VAdjEq>
0.358235

>  <VAdjMa>
6.20945

>  <zagreb>
180

>  <balabanJ>
1.16371

>  <PEOE_PC+>
2.71233

>  <PEOE_PC->
-2.71233

>  <PEOE_RPC+>
0.1088

>  <PEOE_RPC->
0.132508

>  <PEOE_VSA+0>
84.6716

>  <PEOE_VSA+1>
81.4197

>  <PEOE_VSA+2>
9.02085

>  <PEOE_VSA+3>
28.3796

>  <PEOE_VSA+4>
0

>  <PEOE_VSA+5>
34.3576

>  <PEOE_VSA+6>
0

>  <PEOE_VSA-0>
51.2282

>  <PEOE_VSA-1>
49.0196

>  <PEOE_VSA-2>
28.4619

>  <PEOE_VSA-3>
0

>  <PEOE_VSA-4>
11.9086

>  <PEOE_VSA-5>
40.7008

>  <PEOE_VSA-6>
0.136891

>  <PEOE_VSA_FHYD>
0.792266

>  <PEOE_VSA_FNEG>
0.432754

>  <PEOE_VSA_FPNEG>
0.125794

>  <PEOE_VSA_FPOL>
0.207734

>  <PEOE_VSA_FPOS>
0.567246

>  <PEOE_VSA_FPPOS>
0.0819393

>  <PEOE_VSA_HYD>
332.201

>  <PEOE_VSA_NEG>
181.456

>  <PEOE_VSA_PNEG>
52.7463

>  <PEOE_VSA_POL>
87.1039

>  <PEOE_VSA_POS>
237.849

>  <PEOE_VSA_PPOS>
34.3576

>  <PC+>
5.313

>  <PC->
-5.314

>  <Q_PC+>
5.313

>  <Q_PC->
-5.314

>  <Q_RPC+>
0.123471

>  <Q_RPC->
0.1242

>  <Q_VSA_FHYD>
0.634651

>  <Q_VSA_FNEG>
0.540737

>  <Q_VSA_FPNEG>
0.137004

>  <Q_VSA_FPOL>
0.365349

>  <Q_VSA_FPOS>
0.459263

>  <Q_VSA_FPPOS>
0.228344

>  <Q_VSA_HYD>
266.113

>  <Q_VSA_NEG>
226.734

>  <Q_VSA_PNEG>
57.4467

>  <Q_VSA_POL>
153.193

>  <Q_VSA_POS>
192.572

>  <Q_VSA_PPOS>
95.7459

>  <RPC+>
0.123471

>  <RPC->
0.1242

>  <lip_acc>
6

>  <lip_don>
1

>  <lip_druglike>
1

>  <lip_violation>
0

>  <opr_brigid>
27

>  <opr_leadlike>
0

>  <opr_nring>
5

>  <opr_nrot>
6

>  <opr_violation>
2

>  <E>
105.778

>  <E_ang>
9.8225

>  <E_ele>
32.2233

>  <E_nb>
79.2654

>  <E_oop>
0.0556156

>  <E_sol>
-18.9361

>  <E_stb>
0.383707

>  <E_str>
6.45525

>  <E_strain>
0.0040808

>  <E_tor>
9.79538

>  <E_vdw>
47.0421

>  <E_rele>
0

>  <E_rnb>
0

>  <E_rsol>
0

>  <E_rvdw>
0

>  <Kier1>
24.6837

>  <Kier2>
10.9477

>  <Kier3>
5.12

>  <KierA1>
17.8534

>  <KierA2>
7.83212

>  <KierA3>
3.6338

>  <KierFlex>
4.23727

>  <logS>
-6.4047

>  <MNDO_dipole>
7.01386

>  <MNDO_E>
-133119

>  <MNDO_Eele>
-1.0357e+006

>  <MNDO_HF>
-31.224

>  <MNDO_HOMO>
-8.90007

>  <MNDO_IP>
8.90007

>  <MNDO_LUMO>
-0.7484

>  <apol>
66.4989

>  <bpol>
32.8411

>  <mr>
12.722

>  <dipole>
1.6238

>  <dipoleX>
0.712129

>  <dipoleY>
-1.3574

>  <dipoleZ>
0.535772

>  <pmi>
12538

>  <pmiX>
8097.96

>  <pmiY>
3447

>  <pmiZ>
993.027

>  <rgyr>
5.21219

>  <a_acc>
3

>  <a_acid>
0

>  <a_base>
0

>  <a_don>
1

>  <a_hyd>
24

>  <vsa_acc>
40.7008

>  <vsa_acid>
0

>  <vsa_base>
0

>  <vsa_don>
5.68258

>  <vsa_hyd>
321.967

>  <vsa_other>
34.3576

>  <vsa_pol>
46.3833

>  <PM3_dipole>
6.83901

>  <PM3_E>
-121354

>  <PM3_Eele>
-1.02508e+006

>  <PM3_HF>
-17.3754

>  <PM3_HOMO>
-8.81348

>  <PM3_IP>
8.81348

>  <PM3_LUMO>
-0.94937

>  <SlogP>
4.2028

>  <SlogP_VSA0>
0

>  <SlogP_VSA1>
22.4538

>  <SlogP_VSA2>
49.7688

>  <SlogP_VSA3>
73.7583

>  <SlogP_VSA4>
54.0956

>  <SlogP_VSA5>
0

>  <SlogP_VSA6>
0

>  <SlogP_VSA7>
201.08

>  <SlogP_VSA8>
0

>  <SlogP_VSA9>
46.2378

>  <SMR>
12.4826

>  <SMR_VSA0>
71.5866

>  <SMR_VSA1>
21.2087

>  <SMR_VSA2>
25.9065

>  <SMR_VSA3>
6.37115

>  <SMR_VSA4>
11.0883

>  <SMR_VSA5>
189.992

>  <SMR_VSA6>
89.9635

>  <SMR_VSA7>
31.2777

>  <ASA>
717.888

>  <ASA+>
278.688

>  <ASA->
333.165

>  <ASA_H>
572.544

>  <ASA_P>
145.345

>  <CASA+>
1480.67

>  <CASA->
1770.44

>  <DASA>
54.4776

>  <DCASA>
289.773

>  <FASA+>
0.388205

>  <FASA->
0.464091

>  <FASA_H>
0.797538

>  <FASA_P>
0.202462

>  <FCASA+>
2.06253

>  <FCASA->
2.46618

>  <VSA>
451.052

>  <TPSA>
73.48

>  <density>
0.791374

>  <vdw_area>
419.305

>  <vdw_vol>
583.184

>  <vsurf_A>
4.07326

>  <vsurf_CP>
0.133519

>  <vsurf_CW1>
2.62001

>  <vsurf_CW2>
2.18224

>  <vsurf_CW3>
1.32661

>  <vsurf_CW4>
0.545973

>  <vsurf_CW5>
0.233801

>  <vsurf_CW6>
0.0646534

>  <vsurf_CW7>
0.00317941

>  <vsurf_CW8>
0

>  <vsurf_D1>
1047.63

>  <vsurf_D2>
623.25

>  <vsurf_D3>
459.375

>  <vsurf_D4>
387.375

>  <vsurf_D5>
335.75

>  <vsurf_D6>
275.625

>  <vsurf_D7>
173.5

>  <vsurf_D8>
93.375

>  <vsurf_DD12>
0.707107

>  <vsurf_DD13>
0.5

>  <vsurf_DD23>
0.5

>  <vsurf_DW12>
0.5

>  <vsurf_DW13>
5.24404

>  <vsurf_DW23>
4.92443

>  <vsurf_EDmin1>
-2.72395

>  <vsurf_EDmin2>
-2.70927

>  <vsurf_EDmin3>
-2.70024

>  <vsurf_EWmin1>
-5.36495

>  <vsurf_EWmin2>
-5.23

>  <vsurf_EWmin3>
-5.20357

>  <vsurf_G>
1.39484

>  <vsurf_HB1>
353.5

>  <vsurf_HB2>
427.25

>  <vsurf_HB3>
346.875

>  <vsurf_HB4>
125.75

>  <vsurf_HB5>
39.375

>  <vsurf_HB6>
9.375

>  <vsurf_HB7>
1

>  <vsurf_HB8>
0

>  <vsurf_HL1>
0.100408

>  <vsurf_HL2>
0.0303324

>  <vsurf_ID1>
1.29812

>  <vsurf_ID2>
1.2663

>  <vsurf_ID3>
1.34805

>  <vsurf_ID4>
1.52006

>  <vsurf_ID5>
1.64013

>  <vsurf_ID6>
1.65626

>  <vsurf_ID7>
1.29969

>  <vsurf_ID8>
0.783881

>  <vsurf_IW1>
0.254412

>  <vsurf_IW2>
0.678745

>  <vsurf_IW3>
1.55505

>  <vsurf_IW4>
2.70924

>  <vsurf_IW5>
2.83045

>  <vsurf_IW6>
2.95134

>  <vsurf_IW7>
4.27886

>  <vsurf_IW8>
0

>  <vsurf_R>
1.46486

>  <vsurf_S>
658.595

>  <vsurf_V>
964.75

>  <vsurf_W1>
1574

>  <vsurf_W2>
937.125

>  <vsurf_W3>
446.375

>  <vsurf_W4>
141.625

>  <vsurf_W5>
46.125

>  <vsurf_W6>
11.75

>  <vsurf_W7>
1

>  <vsurf_W8>
0

>  <vsurf_Wp1>
1220.5

>  <vsurf_Wp2>
509.875

>  <vsurf_Wp3>
99.5

>  <vsurf_Wp4>
15.875

>  <vsurf_Wp5>
6.75

>  <vsurf_Wp6>
2.375

>  <vsurf_Wp7>
0

>  <vsurf_Wp8>
0

>  <dens>
1.10842

>  <glob>
0.0669279

>  <std_dim1>
4.74001

>  <std_dim2>
2.10183

>  <std_dim3>
1.22626

>  <vol>
416.375

>  <logP(o/w)>
3.842

$$$$
D13.cdx
  MOE2008           3D

 52 56  0  0  0  0  0  0  0  0999 V2000
   -4.8000   -6.2240    1.2370 C   0  0  0  0  0  0  0  0  0  0  0  0
   -5.4970   -5.4330    1.4950 H   0  0  0  0  0  0  0  0  0  0  0  0
   -5.1130   -7.5520    1.5030 C   0  0  0  0  0  0  0  0  0  0  0  0
   -6.0690   -7.7750    1.9760 H   0  0  0  0  0  0  0  0  0  0  0  0
   -4.2390   -8.6100    1.1760 C   0  0  0  0  0  0  0  0  0  0  0  0
   -3.0080   -8.2390    0.5790 C   0  0  0  0  0  0  0  0  0  0  0  0
   -2.6580   -6.9070    0.3010 C   0  0  0  0  0  0  0  0  0  0  0  0
   -3.5860   -5.8980    0.6390 C   0  0  0  0  0  0  0  0  0  0  0  0
   -1.9380   -9.0090    0.1740 N   0  0  0  0  0  0  0  0  0  0  0  0
   -1.8990  -10.0170    0.2560 H   0  0  0  0  0  0  0  0  0  0  0  0
   -0.9470   -8.2300   -0.3530 C   0  0  0  0  0  0  0  0  0  0  0  0
   -0.0400   -8.6890   -0.7250 H   0  0  0  0  0  0  0  0  0  0  0  0
   -1.3490   -6.9090   -0.2980 C   0  0  0  0  0  0  0  0  0  0  0  0
   -0.5520   -5.7760   -0.7600 C   0  0  0  0  0  0  0  0  0  0  0  0
    0.8110   -6.0120   -1.3840 C   0  0  0  0  0  0  0  0  0  0  0  0
    1.9210   -5.8830   -0.5520 N   0  0  0  0  0  0  0  0  0  0  0  0
    3.2630   -6.1100   -1.0910 C   0  0  0  0  0  0  0  0  0  0  0  0
    3.6380   -7.0290   -0.6250 H   0  0  0  0  0  0  0  0  0  0  0  0
    3.2310   -6.2760   -2.1720 H   0  0  0  0  0  0  0  0  0  0  0  0
    4.2060   -4.9410   -0.7700 C   0  0  0  0  0  0  0  0  0  0  0  0
    3.9020   -4.0460   -1.3260 H   0  0  0  0  0  0  0  0  0  0  0  0
    5.2170   -5.2110   -1.0830 H   0  0  0  0  0  0  0  0  0  0  0  0
    4.1530   -4.5940    0.6600 N   0  0  0  0  0  0  0  0  0  0  0  0
    2.8030   -4.3600    1.1850 C   0  0  0  0  0  0  0  0  0  0  0  0
    2.8230   -4.1730    2.2630 H   0  0  0  0  0  0  0  0  0  0  0  0
    2.4290   -3.4510    0.6990 H   0  0  0  0  0  0  0  0  0  0  0  0
    1.8730   -5.5390    0.8770 C   0  0  0  0  0  0  0  0  0  0  0  0
    0.8580   -5.3050    1.2050 H   0  0  0  0  0  0  0  0  0  0  0  0
    2.2010   -6.4300    1.4250 H   0  0  0  0  0  0  0  0  0  0  0  0
    5.2430   -4.4870    1.5190 C   0  0  0  0  0  0  0  0  0  0  0  0
    6.6080   -4.5290    0.9500 C   0  0  0  0  0  0  0  0  0  0  0  0
   -0.9050   -4.6040   -0.6640 O   0  0  0  0  0  0  0  0  0  0  0  0
    0.8470   -6.3010   -2.5750 O   0  0  0  0  0  0  0  0  0  0  0  0
    5.1510   -4.3600    2.7370 O   0  0  0  0  0  0  0  0  0  0  0  0
   -3.3360   -4.6020    0.4060 F   0  0  0  0  0  0  0  0  0  0  0  0
    7.4890   -5.5240    1.3830 C   0  0  0  0  0  0  0  0  0  0  0  0
    7.1660   -6.2670    2.1070 H   0  0  0  0  0  0  0  0  0  0  0  0
    8.7890   -5.5560    0.8780 C   0  0  0  0  0  0  0  0  0  0  0  0
    9.4810   -6.3280    1.2060 H   0  0  0  0  0  0  0  0  0  0  0  0
    9.2060   -4.5910   -0.0410 C   0  0  0  0  0  0  0  0  0  0  0  0
   10.2210   -4.6180   -0.4310 H   0  0  0  0  0  0  0  0  0  0  0  0
    8.3280   -3.5860   -0.4540 C   0  0  0  0  0  0  0  0  0  0  0  0
    8.6630   -2.8310   -1.1610 H   0  0  0  0  0  0  0  0  0  0  0  0
    7.0270   -3.5460    0.0460 C   0  0  0  0  0  0  0  0  0  0  0  0
    6.3520   -2.7530   -0.2630 H   0  0  0  0  0  0  0  0  0  0  0  0
   -4.6510   -9.9890    1.4950 C   0  0  0  0  0  0  0  0  0  0  0  0
   -5.4950  -10.2950    2.4650 N   0  0  0  0  0  0  0  0  0  0  0  0
   -5.7140  -11.6570    2.5010 C   0  0  0  0  0  0  0  0  0  0  0  0
   -6.3800  -12.0660    3.2510 H   0  0  0  0  0  0  0  0  0  0  0  0
   -5.0470  -12.3910    1.5470 C   0  0  0  0  0  0  0  0  0  0  0  0
   -5.0690  -13.4580    1.3820 H   0  0  0  0  0  0  0  0  0  0  0  0
   -4.1160  -11.3430    0.5670 S   0  0  0  0  0  0  0  0  0  0  0  0
  1  2  1  0  0  0  0
  1  3  1  0  0  0  0
  1  8  2  0  0  0  0
  3  4  1  0  0  0  0
  3  5  2  0  0  0  0
  5  6  1  0  0  0  0
  5 46  1  0  0  0  0
  6  7  2  0  0  0  0
  6  9  1  0  0  0  0
  7  8  1  0  0  0  0
  7 13  1  0  0  0  0
  8 35  1  0  0  0  0
  9 10  1  0  0  0  0
  9 11  1  0  0  0  0
 11 12  1  0  0  0  0
 11 13  2  0  0  0  0
 13 14  1  0  0  0  0
 14 15  1  0  0  0  0
 14 32  2  0  0  0  0
 15 16  1  0  0  0  0
 15 33  2  0  0  0  0
 16 17  1  0  0  0  0
 16 27  1  0  0  0  0
 17 18  1  0  0  0  0
 17 19  1  0  0  0  0
 17 20  1  0  0  0  0
 20 21  1  0  0  0  0
 20 22  1  0  0  0  0
 20 23  1  0  0  0  0
 23 24  1  0  0  0  0
 23 30  1  0  0  0  0
 24 25  1  0  0  0  0
 24 26  1  0  0  0  0
 24 27  1  0  0  0  0
 27 28  1  0  0  0  0
 27 29  1  0  0  0  0
 30 31  1  0  0  0  0
 30 34  2  0  0  0  0
 31 36  1  0  0  0  0
 31 44  2  0  0  0  0
 36 37  1  0  0  0  0
 36 38  2  0  0  0  0
 38 39  1  0  0  0  0
 38 40  1  0  0  0  0
 40 41  1  0  0  0  0
 40 42  2  0  0  0  0
 42 43  1  0  0  0  0
 42 44  1  0  0  0  0
 44 45  1  0  0  0  0
 46 47  2  0  0  0  0
 46 52  1  0  0  0  0
 47 48  1  0  0  0  0
 48 49  1  0  0  0  0
 48 50  2  0  0  0  0
 50 51  1  0  0  0  0
 50 52  1  0  0  0  0
M  END
>  <Activity>
11.1739

>  <AM1_dipole>
6.26209

>  <AM1_E>
-133746

>  <AM1_Eele>
-1.0393e+006

>  <AM1_HF>
3.28266

>  <AM1_HOMO>
-8.81339

>  <AM1_IP>
8.81339

>  <AM1_LUMO>
-1.08753

>  <diameter>
17

>  <petitjean>
0.470588

>  <petitjeanSC>
0.888889

>  <radius>
9

>  <VDistEq>
3.84292

>  <VDistMa>
9.77179

>  <weinerPath>
3443

>  <weinerPol>
56

>  <BCUT_PEOE_0>
-2.71188

>  <BCUT_PEOE_1>
-0.639706

>  <BCUT_PEOE_2>
0.698844

>  <BCUT_PEOE_3>
2.6503

>  <BCUT_SLOGP_0>
-2.86001

>  <BCUT_SLOGP_1>
-0.53808

>  <BCUT_SLOGP_2>
0.805915

>  <BCUT_SLOGP_3>
2.50367

>  <BCUT_SMR_0>
-2.43203

>  <BCUT_SMR_1>
-0.436587

>  <BCUT_SMR_2>
0.854311

>  <BCUT_SMR_3>
2.92026

>  <GCUT_PEOE_0>
-0.858415

>  <GCUT_PEOE_1>
-0.403745

>  <GCUT_PEOE_2>
0.080099

>  <GCUT_PEOE_3>
2.69675

>  <GCUT_SLOGP_0>
-0.976491

>  <GCUT_SLOGP_1>
-0.308291

>  <GCUT_SLOGP_2>
0.213184

>  <GCUT_SLOGP_3>
2.70859

>  <GCUT_SMR_0>
-0.508914

>  <GCUT_SMR_1>
-0.216057

>  <GCUT_SMR_2>
0.233037

>  <GCUT_SMR_3>
2.97735

>  <a_aro>
20

>  <a_count>
52

>  <a_IC>
92.9183

>  <a_ICM>
1.78689

>  <a_nH>
19

>  <b_1rotN>
6

>  <b_1rotR>
0.162162

>  <b_ar>
21

>  <b_count>
56

>  <b_double>
3

>  <b_rotN>
6

>  <b_rotR>
0.162162

>  <b_single>
32

>  <b_triple>
0

>  <chi0v>
18.271

>  <chi0v_C>
13.6019

>  <chi1v>
11.2968

>  <chi1v_C>
6.44338

>  <chiral>
0

>  <chiral_u>
0

>  <nmol>
1

>  <reactive>
0

>  <rings>
5

>  <Weight>
462.505

>  <a_heavy>
33

>  <a_nB>
0

>  <a_nBr>
0

>  <a_nC>
24

>  <a_nCl>
0

>  <a_nF>
1

>  <a_nI>
0

>  <a_nN>
4

>  <a_nO>
3

>  <a_nP>
0

>  <a_nS>
1

>  <b_heavy>
37

>  <chi0>
22.949

>  <chi0_C>
15.673

>  <chi1>
16.0417

>  <chi1_C>
8.70791

>  <FCharge>
0

>  <VAdjEq>
0.358235

>  <VAdjMa>
6.20945

>  <zagreb>
180

>  <balabanJ>
1.1637

>  <PEOE_PC+>
2.76079

>  <PEOE_PC->
-2.76079

>  <PEOE_RPC+>
0.10689

>  <PEOE_RPC->
0.130176

>  <PEOE_VSA+0>
101.562

>  <PEOE_VSA+1>
85.685

>  <PEOE_VSA+2>
9.02085

>  <PEOE_VSA+3>
28.3796

>  <PEOE_VSA+4>
0

>  <PEOE_VSA+5>
34.3576

>  <PEOE_VSA+6>
0

>  <PEOE_VSA-0>
49.0196

>  <PEOE_VSA-1>
50.9957

>  <PEOE_VSA-2>
0

>  <PEOE_VSA-3>
0

>  <PEOE_VSA-4>
11.9086

>  <PEOE_VSA-5>
46.3833

>  <PEOE_VSA-6>
0.136891

>  <PEOE_VSA_FHYD>
0.77773

>  <PEOE_VSA_FNEG>
0.379553

>  <PEOE_VSA_FPNEG>
0.139966

>  <PEOE_VSA_FPOL>
0.22227

>  <PEOE_VSA_FPOS>
0.620447

>  <PEOE_VSA_FPPOS>
0.0823035

>  <PEOE_VSA_HYD>
324.663

>  <PEOE_VSA_NEG>
158.444

>  <PEOE_VSA_PNEG>
58.4289

>  <PEOE_VSA_POL>
92.7864

>  <PEOE_VSA_POS>
259.005

>  <PEOE_VSA_PPOS>
34.3576

>  <PC+>
5.564

>  <PC->
-5.565

>  <Q_PC+>
5.564

>  <Q_PC->
-5.565

>  <Q_RPC+>
0.117901

>  <Q_RPC->
0.118598

>  <Q_VSA_FHYD>
0.598632

>  <Q_VSA_FNEG>
0.488016

>  <Q_VSA_FPNEG>
0.151226

>  <Q_VSA_FPOL>
0.401368

>  <Q_VSA_FPOS>
0.511984

>  <Q_VSA_FPPOS>
0.250142

>  <Q_VSA_HYD>
249.899

>  <Q_VSA_NEG>
203.722

>  <Q_VSA_PNEG>
63.1293

>  <Q_VSA_POL>
167.551

>  <Q_VSA_POS>
213.728

>  <Q_VSA_PPOS>
104.422

>  <RPC+>
0.117901

>  <RPC->
0.118598

>  <lip_acc>
7

>  <lip_don>
1

>  <lip_druglike>
1

>  <lip_violation>
0

>  <opr_brigid>
27

>  <opr_leadlike>
0

>  <opr_nring>
5

>  <opr_nrot>
6

>  <opr_violation>
2

>  <E>
106.408

>  <E_ang>
10.9361

>  <E_ele>
35.55

>  <E_nb>
84.187

>  <E_oop>
0.0513152

>  <E_sol>
-16.7146

>  <E_stb>
0.283802

>  <E_str>
7.49002

>  <E_strain>
0.00509567

>  <E_tor>
3.46016

>  <E_vdw>
48.6369

>  <E_rele>
0

>  <E_rnb>
0

>  <E_rsol>
0

>  <E_rvdw>
0

>  <Kier1>
24.6837

>  <Kier2>
10.9477

>  <Kier3>
5.12

>  <KierA1>
17.7797

>  <KierA2>
7.79862

>  <KierA3>
3.61787

>  <KierFlex>
4.20172

>  <logS>
-5.87986

>  <MNDO_dipole>
5.69728

>  <MNDO_E>
-134623

>  <MNDO_Eele>
-1.03262e+006

>  <MNDO_HF>
-27.1282

>  <MNDO_HOMO>
-8.95226

>  <MNDO_IP>
8.95226

>  <MNDO_LUMO>
-1.10269

>  <apol>
65.1721

>  <bpol>
33.0679

>  <mr>
12.5547

>  <dipole>
1.66591

>  <dipoleX>
0.534618

>  <dipoleY>
-1.55816

>  <dipoleZ>
-0.24818

>  <pmi>
13580.3

>  <pmiX>
10011

>  <pmiY>
2929.38

>  <pmiZ>
639.951

>  <rgyr>
5.41872

>  <a_acc>
4

>  <a_acid>
0

>  <a_base>
0

>  <a_don>
1

>  <a_hyd>
23

>  <vsa_acc>
46.3833

>  <vsa_acid>
0

>  <vsa_base>
0

>  <vsa_don>
5.68258

>  <vsa_hyd>
315.14

>  <vsa_other>
34.3576

>  <vsa_pol>
52.0659

>  <PM3_dipole>
6.36929

>  <PM3_E>
-122002

>  <PM3_Eele>
-1.02122e+006

>  <PM3_HF>
-30.2771

>  <PM3_HOMO>
-8.89364

>  <PM3_IP>
8.89364

>  <PM3_LUMO>
-1.31658

>  <SlogP>
3.5978

>  <SlogP_VSA0>
0

>  <SlogP_VSA1>
39.2393

>  <SlogP_VSA2>
49.7688

>  <SlogP_VSA3>
73.7583

>  <SlogP_VSA4>
54.0956

>  <SlogP_VSA5>
0

>  <SlogP_VSA6>
0

>  <SlogP_VSA7>
182.579

>  <SlogP_VSA8>
0

>  <SlogP_VSA9>
46.2378

>  <SMR>
12.2621

>  <SMR_VSA0>
71.5866

>  <SMR_VSA1>
37.9943

>  <SMR_VSA2>
25.9065

>  <SMR_VSA3>
6.37115

>  <SMR_VSA4>
8.83225

>  <SMR_VSA5>
173.747

>  <SMR_VSA6>
89.9635

>  <SMR_VSA7>
31.2777

>  <ASA>
715.186

>  <ASA+>
299.284

>  <ASA->
310.376

>  <ASA_H>
555.144

>  <ASA_P>
160.042

>  <CASA+>
1665.21

>  <CASA->
1727.24

>  <DASA>
11.0927

>  <DCASA>
62.0299

>  <FASA+>
0.41847

>  <FASA->
0.43398

>  <FASA_H>
0.776224

>  <FASA_P>
0.223776

>  <FCASA+>
2.32837

>  <FCASA->
2.4151

>  <VSA>
443.573

>  <TPSA>
86.37

>  <density>
0.805605

>  <vdw_area>
417.45

>  <vdw_vol>
574.109

>  <vsurf_A>
2.32036

>  <vsurf_CP>
0.100417

>  <vsurf_CW1>
2.64454

>  <vsurf_CW2>
2.1697

>  <vsurf_CW3>
1.42435

>  <vsurf_CW4>
0.66077

>  <vsurf_CW5>
0.278705

>  <vsurf_CW6>
0.0840292

>  <vsurf_CW7>
0.00690202

>  <vsurf_CW8>
0

>  <vsurf_D1>
1018.13

>  <vsurf_D2>
592.5

>  <vsurf_D3>
440.75

>  <vsurf_D4>
369.5

>  <vsurf_D5>
315.125

>  <vsurf_D6>
257.125

>  <vsurf_D7>
146.875

>  <vsurf_D8>
81.5

>  <vsurf_DD12>
0.5

>  <vsurf_DD13>
0.5

>  <vsurf_DD23>
0.707107

>  <vsurf_DW12>
0.707107

>  <vsurf_DW13>
0.5

>  <vsurf_DW23>
0.866025

>  <vsurf_EDmin1>
-2.71508

>  <vsurf_EDmin2>
-2.68092

>  <vsurf_EDmin3>
-2.66395

>  <vsurf_EWmin1>
-5.52869

>  <vsurf_EWmin2>
-5.39737

>  <vsurf_EWmin3>
-5.38391

>  <vsurf_G>
1.39463

>  <vsurf_HB1>
369.625

>  <vsurf_HB2>
443.875

>  <vsurf_HB3>
411.625

>  <vsurf_HB4>
160.375

>  <vsurf_HB5>
52.625

>  <vsurf_HB6>
14.375

>  <vsurf_HB7>
1.625

>  <vsurf_HB8>
0

>  <vsurf_HL1>
0.128474

>  <vsurf_HL2>
0.041272

>  <vsurf_ID1>
0.948023

>  <vsurf_ID2>
0.905609

>  <vsurf_ID3>
1.01527

>  <vsurf_ID4>
1.26239

>  <vsurf_ID5>
1.50031

>  <vsurf_ID6>
1.60012

>  <vsurf_ID7>
0.869808

>  <vsurf_ID8>
0.839835

>  <vsurf_IW1>
0.175854

>  <vsurf_IW2>
0.619126

>  <vsurf_IW3>
1.02693

>  <vsurf_IW4>
1.39194

>  <vsurf_IW5>
1.30794

>  <vsurf_IW6>
1.41381

>  <vsurf_IW7>
3.14671

>  <vsurf_IW8>
0

>  <vsurf_R>
1.45624

>  <vsurf_S>
650.563

>  <vsurf_V>
947.375

>  <vsurf_W1>
1596.38

>  <vsurf_W2>
966.625

>  <vsurf_W3>
499.875

>  <vsurf_W4>
171.375

>  <vsurf_W5>
56.625

>  <vsurf_W6>
15.25

>  <vsurf_W7>
1.625

>  <vsurf_W8>
0

>  <vsurf_Wp1>
1226.75

>  <vsurf_Wp2>
522.75

>  <vsurf_Wp3>
88.25

>  <vsurf_Wp4>
11

>  <vsurf_Wp5>
4

>  <vsurf_Wp6>
0.875

>  <vsurf_Wp7>
0

>  <vsurf_Wp8>
0

>  <dens>
1.12532

>  <glob>
0.0481391

>  <std_dim1>
5.28473

>  <std_dim2>
1.69783

>  <std_dim3>
1.1595

>  <vol>
411

>  <logP(o/w)>
2.84

$$$$
D13.cdx
  MOE2008           3D

 52 56  0  0  0  0  0  0  0  0999 V2000
   -5.2210  -11.6660   -0.1880 C   0  0  0  0  0  0  0  0  0  0  0  0
   -6.1060  -11.0620   -0.0080 H   0  0  0  0  0  0  0  0  0  0  0  0
   -5.2420  -12.6730   -1.1480 C   0  0  0  0  0  0  0  0  0  0  0  0
   -6.1600  -12.8400   -1.7110 H   0  0  0  0  0  0  0  0  0  0  0  0
   -4.1140  -13.4750   -1.4040 C   0  0  0  0  0  0  0  0  0  0  0  0
   -2.9610  -13.2030   -0.6350 C   0  0  0  0  0  0  0  0  0  0  0  0
   -2.9020  -12.1950    0.3390 C   0  0  0  0  0  0  0  0  0  0  0  0
   -4.0640  -11.4230    0.5510 C   0  0  0  0  0  0  0  0  0  0  0  0
   -1.7220  -13.8070   -0.6500 N   0  0  0  0  0  0  0  0  0  0  0  0
   -1.4790  -14.5760   -1.2630 H   0  0  0  0  0  0  0  0  0  0  0  0
   -0.8910  -13.2290    0.2660 C   0  0  0  0  0  0  0  0  0  0  0  0
    0.1220  -13.5930    0.3830 H   0  0  0  0  0  0  0  0  0  0  0  0
   -1.5800  -12.2150    0.9070 C   0  0  0  0  0  0  0  0  0  0  0  0
   -1.0200  -11.3580    1.9480 C   0  0  0  0  0  0  0  0  0  0  0  0
    0.4030  -11.5830    2.4300 C   0  0  0  0  0  0  0  0  0  0  0  0
    1.4060  -10.8410    1.8080 N   0  0  0  0  0  0  0  0  0  0  0  0
    2.7990  -11.0510    2.2050 C   0  0  0  0  0  0  0  0  0  0  0  0
    3.0110  -10.3290    3.0030 H   0  0  0  0  0  0  0  0  0  0  0  0
    2.9240  -12.0540    2.6260 H   0  0  0  0  0  0  0  0  0  0  0  0
    3.7670  -10.8450    1.0360 C   0  0  0  0  0  0  0  0  0  0  0  0
    3.5770  -11.6020    0.2670 H   0  0  0  0  0  0  0  0  0  0  0  0
    4.7990  -10.9600    1.3830 H   0  0  0  0  0  0  0  0  0  0  0  0
    3.6030   -9.5330    0.3920 N   0  0  0  0  0  0  0  0  0  0  0  0
    2.3160   -8.8590    0.5860 C   0  0  0  0  0  0  0  0  0  0  0  0
    2.4200   -8.2410    1.4860 H   0  0  0  0  0  0  0  0  0  0  0  0
    2.1130   -8.1850   -0.2530 H   0  0  0  0  0  0  0  0  0  0  0  0
    1.1540   -9.8430    0.7600 C   0  0  0  0  0  0  0  0  0  0  0  0
    0.9950  -10.4010   -0.1710 H   0  0  0  0  0  0  0  0  0  0  0  0
    0.2330   -9.2950    0.9810 H   0  0  0  0  0  0  0  0  0  0  0  0
    4.5840   -8.8820   -0.3540 C   0  0  0  0  0  0  0  0  0  0  0  0
    5.8460   -9.5980   -0.6490 C   0  0  0  0  0  0  0  0  0  0  0  0
   -1.6320  -10.4330    2.4720 O   0  0  0  0  0  0  0  0  0  0  0  0
    0.5790  -12.4080    3.3200 O   0  0  0  0  0  0  0  0  0  0  0  0
    4.4770   -7.7360   -0.7800 O   0  0  0  0  0  0  0  0  0  0  0  0
   -4.1010  -10.4390    1.4600 F   0  0  0  0  0  0  0  0  0  0  0  0
    7.0500   -9.0490   -0.1970 C   0  0  0  0  0  0  0  0  0  0  0  0
    7.0540   -8.1240    0.3740 H   0  0  0  0  0  0  0  0  0  0  0  0
    8.2520   -9.6960   -0.4860 C   0  0  0  0  0  0  0  0  0  0  0  0
    9.1920   -9.2780   -0.1350 H   0  0  0  0  0  0  0  0  0  0  0  0
    8.2480  -10.8750   -1.2330 C   0  0  0  0  0  0  0  0  0  0  0  0
    9.1860  -11.3750   -1.4590 H   0  0  0  0  0  0  0  0  0  0  0  0
    7.0450  -11.4080   -1.7020 C   0  0  0  0  0  0  0  0  0  0  0  0
    7.0520  -12.3180   -2.2960 H   0  0  0  0  0  0  0  0  0  0  0  0
    5.8390  -10.7670   -1.4170 C   0  0  0  0  0  0  0  0  0  0  0  0
    4.9090  -11.1720   -1.8050 H   0  0  0  0  0  0  0  0  0  0  0  0
   -4.1810  -14.5200   -2.4210 C   0  0  0  0  0  0  0  0  0  0  0  0
   -5.1890  -14.8620   -3.2020 N   0  0  0  0  0  0  0  0  0  0  0  0
   -4.6910  -15.8960   -3.9530 C   0  0  0  0  0  0  0  0  0  0  0  0
   -5.2900  -16.3980   -4.6990 H   0  0  0  0  0  0  0  0  0  0  0  0
   -3.3900  -16.1450   -3.5990 C   0  0  0  0  0  0  0  0  0  0  0  0
   -2.6280  -16.8430   -3.9130 H   0  0  0  0  0  0  0  0  0  0  0  0
   -3.0450  -15.2680   -2.6160 O   0  0  0  0  0  0  0  0  0  0  0  0
  1  2  1  0  0  0  0
  1  3  1  0  0  0  0
  1  8  2  0  0  0  0
  3  4  1  0  0  0  0
  3  5  2  0  0  0  0
  5  6  1  0  0  0  0
  5 46  1  0  0  0  0
  6  7  2  0  0  0  0
  6  9  1  0  0  0  0
  7  8  1  0  0  0  0
  7 13  1  0  0  0  0
  8 35  1  0  0  0  0
  9 10  1  0  0  0  0
  9 11  1  0  0  0  0
 11 12  1  0  0  0  0
 11 13  2  0  0  0  0
 13 14  1  0  0  0  0
 14 15  1  0  0  0  0
 14 32  2  0  0  0  0
 15 16  1  0  0  0  0
 15 33  2  0  0  0  0
 16 17  1  0  0  0  0
 16 27  1  0  0  0  0
 17 18  1  0  0  0  0
 17 19  1  0  0  0  0
 17 20  1  0  0  0  0
 20 21  1  0  0  0  0
 20 22  1  0  0  0  0
 20 23  1  0  0  0  0
 23 24  1  0  0  0  0
 23 30  1  0  0  0  0
 24 25  1  0  0  0  0
 24 26  1  0  0  0  0
 24 27  1  0  0  0  0
 27 28  1  0  0  0  0
 27 29  1  0  0  0  0
 30 31  1  0  0  0  0
 30 34  2  0  0  0  0
 31 36  1  0  0  0  0
 31 44  2  0  0  0  0
 36 37  1  0  0  0  0
 36 38  2  0  0  0  0
 38 39  1  0  0  0  0
 38 40  1  0  0  0  0
 40 41  1  0  0  0  0
 40 42  2  0  0  0  0
 42 43  1  0  0  0  0
 42 44  1  0  0  0  0
 44 45  1  0  0  0  0
 46 47  2  0  0  0  0
 46 52  1  0  0  0  0
 47 48  1  0  0  0  0
 48 49  1  0  0  0  0
 48 50  2  0  0  0  0
 50 51  1  0  0  0  0
 50 52  1  0  0  0  0
M  END
>  <Activity>
10.301

>  <AM1_dipole>
6.70601

>  <AM1_E>
-136632

>  <AM1_Eele>
-1.05346e+006

>  <AM1_HF>
-21.535

>  <AM1_HOMO>
-8.80321

>  <AM1_IP>
8.80321

>  <AM1_LUMO>
-1.09567

>  <diameter>
17

>  <petitjean>
0.470588

>  <petitjeanSC>
0.888889

>  <radius>
9

>  <VDistEq>
3.84292

>  <VDistMa>
9.77179

>  <weinerPath>
3443

>  <weinerPol>
56

>  <BCUT_PEOE_0>
-2.71188

>  <BCUT_PEOE_1>
-0.638737

>  <BCUT_PEOE_2>
0.698844

>  <BCUT_PEOE_3>
2.6503

>  <BCUT_SLOGP_0>
-2.86001

>  <BCUT_SLOGP_1>
-0.53808

>  <BCUT_SLOGP_2>
0.805915

>  <BCUT_SLOGP_3>
2.50359

>  <BCUT_SMR_0>
-2.43203

>  <BCUT_SMR_1>
-0.437581

>  <BCUT_SMR_2>
0.854311

>  <BCUT_SMR_3>
2.92026

>  <GCUT_PEOE_0>
-0.858073

>  <GCUT_PEOE_1>
-0.403742

>  <GCUT_PEOE_2>
0.080099

>  <GCUT_PEOE_3>
2.69894

>  <GCUT_SLOGP_0>
-0.976491

>  <GCUT_SLOGP_1>
-0.308294

>  <GCUT_SLOGP_2>
0.207089

>  <GCUT_SLOGP_3>
2.70027

>  <GCUT_SMR_0>
-0.508917

>  <GCUT_SMR_1>
-0.216057

>  <GCUT_SMR_2>
0.231311

>  <GCUT_SMR_3>
2.97145

>  <a_aro>
20

>  <a_count>
52

>  <a_IC>
89.6731

>  <a_ICM>
1.72448

>  <a_nH>
19

>  <b_1rotN>
6

>  <b_1rotR>
0.162162

>  <b_ar>
21

>  <b_count>
56

>  <b_double>
3

>  <b_rotN>
6

>  <b_rotR>
0.162162

>  <b_single>
32

>  <b_triple>
0

>  <chi0v>
17.4545

>  <chi0v_C>
13.6019

>  <chi1v>
10.4172

>  <chi1v_C>
6.44338

>  <chiral>
0

>  <chiral_u>
0

>  <nmol>
1

>  <reactive>
0

>  <rings>
5

>  <Weight>
446.438

>  <a_heavy>
33

>  <a_nB>
0

>  <a_nBr>
0

>  <a_nC>
24

>  <a_nCl>
0

>  <a_nF>
1

>  <a_nI>
0

>  <a_nN>
4

>  <a_nO>
4

>  <a_nP>
0

>  <a_nS>
0

>  <b_heavy>
37

>  <chi0>
22.949

>  <chi0_C>
15.673

>  <chi1>
16.0417

>  <chi1_C>
8.70791

>  <FCharge>
0

>  <VAdjEq>
0.358235

>  <VAdjMa>
6.20945

>  <zagreb>
180

>  <balabanJ>
1.1637

>  <PEOE_PC+>
3.0572

>  <PEOE_PC->
-3.0572

>  <PEOE_RPC+>
0.0965265

>  <PEOE_RPC->
0.145062

>  <PEOE_VSA+0>
73.9323

>  <PEOE_VSA+1>
100.374

>  <PEOE_VSA+2>
31.7911

>  <PEOE_VSA+3>
8.61901

>  <PEOE_VSA+4>
12.9495

>  <PEOE_VSA+5>
34.3576

>  <PEOE_VSA+6>
0

>  <PEOE_VSA-0>
49.0196

>  <PEOE_VSA-1>
36.7647

>  <PEOE_VSA-2>
0

>  <PEOE_VSA-3>
0

>  <PEOE_VSA-4>
17.5912

>  <PEOE_VSA-5>
40.7008

>  <PEOE_VSA-6>
2.64065

>  <PEOE_VSA_FHYD>
0.735187

>  <PEOE_VSA_FNEG>
0.358949

>  <PEOE_VSA_FPNEG>
0.149074

>  <PEOE_VSA_FPOL>
0.264813

>  <PEOE_VSA_FPOS>
0.641051

>  <PEOE_VSA_FPPOS>
0.115739

>  <PEOE_VSA_HYD>
300.501

>  <PEOE_VSA_NEG>
146.717

>  <PEOE_VSA_PNEG>
60.9326

>  <PEOE_VSA_POL>
108.24

>  <PEOE_VSA_POS>
262.024

>  <PEOE_VSA_PPOS>
47.3071

>  <PC+>
5.664

>  <PC->
-5.665

>  <Q_PC+>
5.664

>  <Q_PC->
-5.665

>  <Q_RPC+>
0.115819

>  <Q_RPC->
0.116505

>  <Q_VSA_FHYD>
0.573499

>  <Q_VSA_FNEG>
0.46665

>  <Q_VSA_FPNEG>
0.160574

>  <Q_VSA_FPOL>
0.426501

>  <Q_VSA_FPOS>
0.53335

>  <Q_VSA_FPPOS>
0.265928

>  <Q_VSA_HYD>
234.412

>  <Q_VSA_NEG>
190.739

>  <Q_VSA_PNEG>
65.633

>  <Q_VSA_POL>
174.328

>  <Q_VSA_POS>
218.002

>  <Q_VSA_PPOS>
108.695

>  <RPC+>
0.115819

>  <RPC->
0.116505

>  <lip_acc>
8

>  <lip_don>
1

>  <lip_druglike>
1

>  <lip_violation>
0

>  <opr_brigid>
27

>  <opr_leadlike>
1

>  <opr_nring>
5

>  <opr_nrot>
6

>  <opr_violation>
1

>  <E>
103.47

>  <E_ang>
8.09957

>  <E_ele>
35.6375

>  <E_nb>
84.0269

>  <E_oop>
0.044163

>  <E_sol>
-19.0524

>  <E_stb>
0.42165

>  <E_str>
6.82129

>  <E_strain>
0.0048054

>  <E_tor>
4.05655

>  <E_vdw>
48.3894

>  <E_rele>
0

>  <E_rnb>
4.9738e-014

>  <E_rsol>
4.9738e-014

>  <E_rvdw>
0

>  <Kier1>
24.6837

>  <Kier2>
10.9477

>  <Kier3>
5.12

>  <KierA1>
16.8751

>  <KierA2>
7.38792

>  <KierA3>
3.4226

>  <KierFlex>
3.77793

>  <logS>
-5.82476

>  <MNDO_dipole>
7.59869

>  <MNDO_E>
-136772

>  <MNDO_Eele>
-1.04598e+006

>  <MNDO_HF>
-35.1189

>  <MNDO_HOMO>
-8.8841

>  <MNDO_IP>
8.8841

>  <MNDO_LUMO>
-1.12036

>  <apol>
63.0741

>  <bpol>
32.7039

>  <mr>
11.9819

>  <dipole>
2.12567

>  <dipoleX>
0.90674

>  <dipoleY>
-1.55231

>  <dipoleZ>
-1.13429

>  <pmi>
11550.4

>  <pmiX>
8069.88

>  <pmiY>
2023.88

>  <pmiZ>
1456.63

>  <rgyr>
5.08648

>  <a_acc>
4

>  <a_acid>
0

>  <a_base>
0

>  <a_don>
1

>  <a_hyd>
20

>  <vsa_acc>
46.3833

>  <vsa_acid>
0

>  <vsa_base>
0

>  <vsa_don>
5.68258

>  <vsa_hyd>
268.92

>  <vsa_other>
71.8693

>  <vsa_pol>
52.0659

>  <PM3_dipole>
7.31803

>  <PM3_E>
-124477

>  <PM3_Eele>
-1.03e+006

>  <PM3_HF>
-70.081

>  <PM3_HOMO>
-8.87298

>  <PM3_IP>
8.87298

>  <PM3_LUMO>
-1.14258

>  <SlogP>
3.1293

>  <SlogP_VSA0>
0

>  <SlogP_VSA1>
39.2393

>  <SlogP_VSA2>
49.7688

>  <SlogP_VSA3>
73.7583

>  <SlogP_VSA4>
54.0956

>  <SlogP_VSA5>
9.50735

>  <SlogP_VSA6>
0

>  <SlogP_VSA7>
190.76

>  <SlogP_VSA8>
0

>  <SlogP_VSA9>
14.9601

>  <SMR>
11.701

>  <SMR_VSA0>
81.094

>  <SMR_VSA1>
37.9943

>  <SMR_VSA2>
25.9065

>  <SMR_VSA3>
6.37115

>  <SMR_VSA4>
12.9227

>  <SMR_VSA5>
177.837

>  <SMR_VSA6>
89.9635

>  <SMR_VSA7>
0

>  <ASA>
700.364

>  <ASA+>
306.217

>  <ASA->
286.725

>  <ASA_H>
529.955

>  <ASA_P>
170.41

>  <CASA+>
1734.41

>  <CASA->
1624.3

>  <DASA>
19.4921

>  <DCASA>
110.117

>  <FASA+>
0.437226

>  <FASA->
0.409394

>  <FASA_H>
0.756684

>  <FASA_P>
0.243316

>  <FCASA+>
2.47645

>  <FCASA->
2.31922

>  <VSA>
434.526

>  <TPSA>
99.51

>  <density>
0.793827

>  <vdw_area>
408.741

>  <vdw_vol>
562.387

>  <vsurf_A>
3.23084

>  <vsurf_CP>
0.103375

>  <vsurf_CW1>
2.65175

>  <vsurf_CW2>
2.13961

>  <vsurf_CW3>
1.45883

>  <vsurf_CW4>
0.670301

>  <vsurf_CW5>
0.296315

>  <vsurf_CW6>
0.0971446

>  <vsurf_CW7>
0.00476702

>  <vsurf_CW8>
0

>  <vsurf_D1>
973.875

>  <vsurf_D2>
578.25

>  <vsurf_D3>
432.75

>  <vsurf_D4>
363.375

>  <vsurf_D5>
307.625

>  <vsurf_D6>
244.5

>  <vsurf_D7>
140.875

>  <vsurf_D8>
87.375

>  <vsurf_DD12>
0.5

>  <vsurf_DD13>
3.74166

>  <vsurf_DD23>
3.5

>  <vsurf_DW12>
0.707107

>  <vsurf_DW13>
5.24404

>  <vsurf_DW23>
5.78792

>  <vsurf_EDmin1>
-2.75205

>  <vsurf_EDmin2>
-2.7178

>  <vsurf_EDmin3>
-2.64874

>  <vsurf_EWmin1>
-5.34212

>  <vsurf_EWmin2>
-5.23416

>  <vsurf_EWmin3>
-5.17251

>  <vsurf_G>
1.3883

>  <vsurf_HB1>
380.625

>  <vsurf_HB2>
454.625

>  <vsurf_HB3>
403.5

>  <vsurf_HB4>
160.5

>  <vsurf_HB5>
57

>  <vsurf_HB6>
15.375

>  <vsurf_HB7>
1.75

>  <vsurf_HB8>
0

>  <vsurf_HL1>
0.139226

>  <vsurf_HL2>
0.0440316

>  <vsurf_ID1>
1.44702

>  <vsurf_ID2>
1.40515

>  <vsurf_ID3>
1.53532

>  <vsurf_ID4>
1.77997

>  <vsurf_ID5>
2.06966

>  <vsurf_ID6>
2.15946

>  <vsurf_ID7>
1.22605

>  <vsurf_ID8>
0.763698

>  <vsurf_IW1>
0.148134

>  <vsurf_IW2>
0.940097

>  <vsurf_IW3>
1.537

>  <vsurf_IW4>
1.92927

>  <vsurf_IW5>
1.71613

>  <vsurf_IW6>
1.48064

>  <vsurf_IW7>
3.32659

>  <vsurf_IW8>
0

>  <vsurf_R>
1.45185

>  <vsurf_S>
637.893

>  <vsurf_V>
926.125

>  <vsurf_W1>
1566.88

>  <vsurf_W2>
949.125

>  <vsurf_W3>
493.75

>  <vsurf_W4>
171.25

>  <vsurf_W5>
60.25

>  <vsurf_W6>
16

>  <vsurf_W7>
1.75

>  <vsurf_W8>
0

>  <vsurf_Wp1>
1186.25

>  <vsurf_Wp2>
494.5

>  <vsurf_Wp3>
90.25

>  <vsurf_Wp4>
10.75

>  <vsurf_Wp5>
3.25

>  <vsurf_Wp6>
0.625

>  <vsurf_Wp7>
0

>  <vsurf_Wp8>
0

>  <dens>
1.11609

>  <glob>
0.0554854

>  <std_dim1>
4.73421

>  <std_dim2>
2.14542

>  <std_dim3>
1.11516

>  <vol>
400

>  <logP(o/w)>
2.025

$$$$
D13.cdx
  MOE2008           3D

 52 56  0  0  0  0  0  0  0  0999 V2000
   -5.1520  -16.7030   -0.3560 C   0  0  0  0  0  0  0  0  0  0  0  0
   -5.9040  -15.9480   -0.5680 H   0  0  0  0  0  0  0  0  0  0  0  0
   -5.4990  -17.8690    0.3230 C   0  0  0  0  0  0  0  0  0  0  0  0
   -6.5350  -17.9940    0.6300 H   0  0  0  0  0  0  0  0  0  0  0  0
   -4.5480  -18.8660    0.6110 C   0  0  0  0  0  0  0  0  0  0  0  0
   -3.2300  -18.6160    0.1730 C   0  0  0  0  0  0  0  0  0  0  0  0
   -2.8440  -17.4560   -0.5100 C   0  0  0  0  0  0  0  0  0  0  0  0
   -3.8380  -16.4910   -0.7720 C   0  0  0  0  0  0  0  0  0  0  0  0
   -2.1000  -19.3940    0.3010 N   0  0  0  0  0  0  0  0  0  0  0  0
   -2.0950  -20.2980    0.7580 H   0  0  0  0  0  0  0  0  0  0  0  0
   -1.0230  -18.7780   -0.2640 C   0  0  0  0  0  0  0  0  0  0  0  0
   -0.0540  -19.2600   -0.2500 H   0  0  0  0  0  0  0  0  0  0  0  0
   -1.4380  -17.5650   -0.7850 C   0  0  0  0  0  0  0  0  0  0  0  0
   -0.5610  -16.6220   -1.4670 C   0  0  0  0  0  0  0  0  0  0  0  0
    0.9010  -16.9790   -1.6550 C   0  0  0  0  0  0  0  0  0  0  0  0
    1.7990  -16.4840   -0.7150 N   0  0  0  0  0  0  0  0  0  0  0  0
    3.2150  -16.8400   -0.8080 C   0  0  0  0  0  0  0  0  0  0  0  0
    3.4350  -17.4820    0.0540 H   0  0  0  0  0  0  0  0  0  0  0  0
    3.4170  -17.4220   -1.7130 H   0  0  0  0  0  0  0  0  0  0  0  0
    4.1150  -15.5970   -0.7740 C   0  0  0  0  0  0  0  0  0  0  0  0
    3.9830  -15.0090   -1.6900 H   0  0  0  0  0  0  0  0  0  0  0  0
    5.1570  -15.9200   -0.7220 H   0  0  0  0  0  0  0  0  0  0  0  0
    3.7610  -14.7160    0.3520 N   0  0  0  0  0  0  0  0  0  0  0  0
    2.3400  -14.3600    0.4310 C   0  0  0  0  0  0  0  0  0  0  0  0
    2.1280  -13.7630    1.3230 H   0  0  0  0  0  0  0  0  0  0  0  0
    2.1230  -13.7350   -0.4440 H   0  0  0  0  0  0  0  0  0  0  0  0
    1.4510  -15.6080    0.4140 C   0  0  0  0  0  0  0  0  0  0  0  0
    0.4000  -15.3120    0.3900 H   0  0  0  0  0  0  0  0  0  0  0  0
    1.6090  -16.1950    1.3270 H   0  0  0  0  0  0  0  0  0  0  0  0
    4.6380  -14.2240    1.3150 C   0  0  0  0  0  0  0  0  0  0  0  0
    6.0920  -14.4200    1.1250 C   0  0  0  0  0  0  0  0  0  0  0  0
   -0.9200  -15.5300   -1.8960 O   0  0  0  0  0  0  0  0  0  0  0  0
    1.1860  -17.7030   -2.6030 O   0  0  0  0  0  0  0  0  0  0  0  0
    4.2850  -13.6310    2.3310 O   0  0  0  0  0  0  0  0  0  0  0  0
   -3.5640  -15.3510   -1.4200 F   0  0  0  0  0  0  0  0  0  0  0  0
    6.8120  -15.1160    2.1010 C   0  0  0  0  0  0  0  0  0  0  0  0
    6.3050  -15.5250    2.9710 H   0  0  0  0  0  0  0  0  0  0  0  0
    8.1890  -15.2810    1.9510 C   0  0  0  0  0  0  0  0  0  0  0  0
    8.7570  -15.8230    2.7020 H   0  0  0  0  0  0  0  0  0  0  0  0
    8.8400  -14.7410    0.8390 C   0  0  0  0  0  0  0  0  0  0  0  0
    9.9130  -14.8690    0.7260 H   0  0  0  0  0  0  0  0  0  0  0  0
    8.1190  -14.0280   -0.1220 C   0  0  0  0  0  0  0  0  0  0  0  0
    8.6340  -13.6000   -0.9780 H   0  0  0  0  0  0  0  0  0  0  0  0
    6.7430  -13.8580    0.0220 C   0  0  0  0  0  0  0  0  0  0  0  0
    6.1870  -13.2870   -0.7180 H   0  0  0  0  0  0  0  0  0  0  0  0
   -4.9190  -20.0820    1.3190 C   0  0  0  0  0  0  0  0  0  0  0  0
   -6.0810  -20.6110    1.8400 C   0  0  0  0  0  0  0  0  0  0  0  0
   -7.0750  -20.1860    1.8300 H   0  0  0  0  0  0  0  0  0  0  0  0
   -5.8360  -21.8310    2.4190 N   0  0  0  0  0  0  0  0  0  0  0  0
   -4.5480  -21.9990    2.2330 C   0  0  0  0  0  0  0  0  0  0  0  0
   -3.9340  -22.8340    2.5350 H   0  0  0  0  0  0  0  0  0  0  0  0
   -3.9190  -20.9880    1.5780 O   0  0  0  0  0  0  0  0  0  0  0  0
  1  2  1  0  0  0  0
  1  3  1  0  0  0  0
  1  8  2  0  0  0  0
  3  4  1  0  0  0  0
  3  5  2  0  0  0  0
  5  6  1  0  0  0  0
  5 46  1  0  0  0  0
  6  7  2  0  0  0  0
  6  9  1  0  0  0  0
  7  8  1  0  0  0  0
  7 13  1  0  0  0  0
  8 35  1  0  0  0  0
  9 10  1  0  0  0  0
  9 11  1  0  0  0  0
 11 12  1  0  0  0  0
 11 13  2  0  0  0  0
 13 14  1  0  0  0  0
 14 15  1  0  0  0  0
 14 32  2  0  0  0  0
 15 16  1  0  0  0  0
 15 33  2  0  0  0  0
 16 17  1  0  0  0  0
 16 27  1  0  0  0  0
 17 18  1  0  0  0  0
 17 19  1  0  0  0  0
 17 20  1  0  0  0  0
 20 21  1  0  0  0  0
 20 22  1  0  0  0  0
 20 23  1  0  0  0  0
 23 24  1  0  0  0  0
 23 30  1  0  0  0  0
 24 25  1  0  0  0  0
 24 26  1  0  0  0  0
 24 27  1  0  0  0  0
 27 28  1  0  0  0  0
 27 29  1  0  0  0  0
 30 31  1  0  0  0  0
 30 34  2  0  0  0  0
 31 36  1  0  0  0  0
 31 44  2  0  0  0  0
 36 37  1  0  0  0  0
 36 38  2  0  0  0  0
 38 39  1  0  0  0  0
 38 40  1  0  0  0  0
 40 41  1  0  0  0  0
 40 42  2  0  0  0  0
 42 43  1  0  0  0  0
 42 44  1  0  0  0  0
 44 45  1  0  0  0  0
 46 47  2  0  0  0  0
 46 52  1  0  0  0  0
 47 48  1  0  0  0  0
 47 49  1  0  0  0  0
 49 50  2  0  0  0  0
 50 51  1  0  0  0  0
 50 52  1  0  0  0  0
M  END
>  <Activity>
11.2676

>  <AM1_dipole>
4.9396

>  <AM1_E>
-136635

>  <AM1_Eele>
-1.04818e+006

>  <AM1_HF>
-24.7211

>  <AM1_HOMO>
-8.6971

>  <AM1_IP>
8.6971

>  <AM1_LUMO>
-1.14281

>  <diameter>
17

>  <petitjean>
0.470588

>  <petitjeanSC>
0.888889

>  <radius>
9

>  <VDistEq>
3.84292

>  <VDistMa>
9.77179

>  <weinerPath>
3443

>  <weinerPol>
56

>  <BCUT_PEOE_0>
-2.71188

>  <BCUT_PEOE_1>
-0.638737

>  <BCUT_PEOE_2>
0.698182

>  <BCUT_PEOE_3>
2.6503

>  <BCUT_SLOGP_0>
-2.86001

>  <BCUT_SLOGP_1>
-0.53808

>  <BCUT_SLOGP_2>
0.805915

>  <BCUT_SLOGP_3>
2.50365

>  <BCUT_SMR_0>
-2.43203

>  <BCUT_SMR_1>
-0.427097

>  <BCUT_SMR_2>
0.854311

>  <BCUT_SMR_3>
2.92026

>  <GCUT_PEOE_0>
-0.85824

>  <GCUT_PEOE_1>
-0.403742

>  <GCUT_PEOE_2>
0.080099

>  <GCUT_PEOE_3>
2.70177

>  <GCUT_SLOGP_0>
-0.976489

>  <GCUT_SLOGP_1>
-0.308393

>  <GCUT_SLOGP_2>
0.182222

>  <GCUT_SLOGP_3>
2.70721

>  <GCUT_SMR_0>
-0.508916

>  <GCUT_SMR_1>
-0.216057

>  <GCUT_SMR_2>
0.226544

>  <GCUT_SMR_3>
2.97519

>  <a_aro>
20

>  <a_count>
52

>  <a_IC>
89.6731

>  <a_ICM>
1.72448

>  <a_nH>
19

>  <b_1rotN>
6

>  <b_1rotR>
0.162162

>  <b_ar>
21

>  <b_count>
56

>  <b_double>
3

>  <b_rotN>
6

>  <b_rotR>
0.162162

>  <b_single>
32

>  <b_triple>
0

>  <chi0v>
17.4545

>  <chi0v_C>
13.6019

>  <chi1v>
10.4071

>  <chi1v_C>
6.39872

>  <chiral>
0

>  <chiral_u>
0

>  <nmol>
1

>  <reactive>
0

>  <rings>
5

>  <Weight>
446.438

>  <a_heavy>
33

>  <a_nB>
0

>  <a_nBr>
0

>  <a_nC>
24

>  <a_nCl>
0

>  <a_nF>
1

>  <a_nI>
0

>  <a_nN>
4

>  <a_nO>
4

>  <a_nP>
0

>  <a_nS>
0

>  <b_heavy>
37

>  <chi0>
22.949

>  <chi0_C>
15.673

>  <chi1>
16.0417

>  <chi1_C>
8.61616

>  <FCharge>
0

>  <VAdjEq>
0.358235

>  <VAdjMa>
6.20945

>  <zagreb>
180

>  <balabanJ>
1.1637

>  <PEOE_PC+>
3.06436

>  <PEOE_PC->
-3.06436

>  <PEOE_RPC+>
0.0963009

>  <PEOE_RPC->
0.144378

>  <PEOE_VSA+0>
76.1408

>  <PEOE_VSA+1>
98.1656

>  <PEOE_VSA+2>
13.2862

>  <PEOE_VSA+3>
40.0734

>  <PEOE_VSA+4>
0

>  <PEOE_VSA+5>
34.3576

>  <PEOE_VSA+6>
0

>  <PEOE_VSA-0>
49.0196

>  <PEOE_VSA-1>
36.7647

>  <PEOE_VSA-2>
0

>  <PEOE_VSA-3>
0

>  <PEOE_VSA-4>
17.5912

>  <PEOE_VSA-5>
40.7008

>  <PEOE_VSA-6>
2.64065

>  <PEOE_VSA_FHYD>
0.766869

>  <PEOE_VSA_FNEG>
0.358949

>  <PEOE_VSA_FPNEG>
0.149074

>  <PEOE_VSA_FPOL>
0.233131

>  <PEOE_VSA_FPOS>
0.641051

>  <PEOE_VSA_FPPOS>
0.0840572

>  <PEOE_VSA_HYD>
313.45

>  <PEOE_VSA_NEG>
146.717

>  <PEOE_VSA_PNEG>
60.9326

>  <PEOE_VSA_POL>
95.2902

>  <PEOE_VSA_POS>
262.024

>  <PEOE_VSA_PPOS>
34.3576

>  <PC+>
5.654

>  <PC->
-5.655

>  <Q_PC+>
5.654

>  <Q_PC->
-5.655

>  <Q_RPC+>
0.116024

>  <Q_RPC->
0.116711

>  <Q_VSA_FHYD>
0.54892

>  <Q_VSA_FNEG>
0.421377

>  <Q_VSA_FPNEG>
0.160574

>  <Q_VSA_FPOL>
0.45108

>  <Q_VSA_FPOS>
0.578623

>  <Q_VSA_FPPOS>
0.290506

>  <Q_VSA_HYD>
224.366

>  <Q_VSA_NEG>
172.234

>  <Q_VSA_PNEG>
65.633

>  <Q_VSA_POL>
184.375

>  <Q_VSA_POS>
236.507

>  <Q_VSA_PPOS>
118.742

>  <RPC+>
0.116024

>  <RPC->
0.116711

>  <lip_acc>
8

>  <lip_don>
1

>  <lip_druglike>
1

>  <lip_violation>
0

>  <opr_brigid>
27

>  <opr_leadlike>
1

>  <opr_nring>
5

>  <opr_nrot>
6

>  <opr_violation>
1

>  <E>
101.145

>  <E_ang>
9.36879

>  <E_ele>
33.2799

>  <E_nb>
83.0214

>  <E_oop>
0.0438509

>  <E_sol>
-16.9061

>  <E_stb>
0.344496

>  <E_str>
6.53635

>  <E_strain>
0.00527969

>  <E_tor>
1.83055

>  <E_vdw>
49.7415

>  <E_rele>
0

>  <E_rnb>
0

>  <E_rsol>
0

>  <E_rvdw>
0

>  <Kier1>
24.6837

>  <Kier2>
10.9477

>  <Kier3>
5.12

>  <KierA1>
16.8751

>  <KierA2>
7.38792

>  <KierA3>
3.4226

>  <KierFlex>
3.77793

>  <logS>
-5.53428

>  <MNDO_dipole>
4.9395

>  <MNDO_E>
-136773

>  <MNDO_Eele>
-1.03841e+006

>  <MNDO_HF>
-65.9653

>  <MNDO_HOMO>
-9.00467

>  <MNDO_IP>
9.00467

>  <MNDO_LUMO>
-0.99965

>  <apol>
63.0741

>  <bpol>
32.7039

>  <mr>
11.9825

>  <dipole>
1.14551

>  <dipoleX>
0.558131

>  <dipoleY>
-0.93668

>  <dipoleZ>
0.351172

>  <pmi>
12546.3

>  <pmiX>
9225.39

>  <pmiY>
2507.59

>  <pmiZ>
813.289

>  <rgyr>
5.30123

>  <a_acc>
4

>  <a_acid>
0

>  <a_base>
0

>  <a_don>
1

>  <a_hyd>
20

>  <vsa_acc>
46.3833

>  <vsa_acid>
0

>  <vsa_base>
0

>  <vsa_don>
5.68258

>  <vsa_hyd>
268.92

>  <vsa_other>
71.8693

>  <vsa_pol>
52.0659

>  <PM3_dipole>
4.96727

>  <PM3_E>
-124481

>  <PM3_Eele>
-1.03299e+006

>  <PM3_HF>
-74.231

>  <PM3_HOMO>
-8.89275

>  <PM3_IP>
8.89275

>  <PM3_LUMO>
-1.10308

>  <SlogP>
3.1293

>  <SlogP_VSA0>
0

>  <SlogP_VSA1>
39.2393

>  <SlogP_VSA2>
49.7688

>  <SlogP_VSA3>
73.7583

>  <SlogP_VSA4>
54.0956

>  <SlogP_VSA5>
9.50735

>  <SlogP_VSA6>
0

>  <SlogP_VSA7>
190.76

>  <SlogP_VSA8>
0

>  <SlogP_VSA9>
14.9601

>  <SMR>
11.701

>  <SMR_VSA0>
81.094

>  <SMR_VSA1>
37.9943

>  <SMR_VSA2>
25.9065

>  <SMR_VSA3>
6.37115

>  <SMR_VSA4>
13.3515

>  <SMR_VSA5>
177.409

>  <SMR_VSA6>
89.9635

>  <SMR_VSA7>
0

>  <ASA>
701.789

>  <ASA+>
329.189

>  <ASA->
264.327

>  <ASA_H>
500.167

>  <ASA_P>
201.622

>  <CASA+>
1861.24

>  <CASA->
1494.77

>  <DASA>
64.8617

>  <DCASA>
366.464

>  <FASA+>
0.469071

>  <FASA->
0.376648

>  <FASA_H>
0.712703

>  <FASA_P>
0.287297

>  <FCASA+>
2.65213

>  <FCASA->
2.12994

>  <VSA>
435.124

>  <TPSA>
99.51

>  <density>
0.793827

>  <vdw_area>
408.741

>  <vdw_vol>
562.387

>  <vsurf_A>
2.1013

>  <vsurf_CP>
0.0947361

>  <vsurf_CW1>
2.67705

>  <vsurf_CW2>
2.2451

>  <vsurf_CW3>
1.4334

>  <vsurf_CW4>
0.678187

>  <vsurf_CW5>
0.298805

>  <vsurf_CW6>
0.0898771

>  <vsurf_CW7>
0.00692018

>  <vsurf_CW8>
0

>  <vsurf_D1>
980.375

>  <vsurf_D2>
582.375

>  <vsurf_D3>
428.25

>  <vsurf_D4>
356.375

>  <vsurf_D5>
303.875

>  <vsurf_D6>
250

>  <vsurf_D7>
162.125

>  <vsurf_D8>
89.5

>  <vsurf_DD12>
0.5

>  <vsurf_DD13>
5.24404

>  <vsurf_DD23>
5.02494

>  <vsurf_DW12>
0.5

>  <vsurf_DW13>
5.59017

>  <vsurf_DW23>
5.33854

>  <vsurf_EDmin1>
-2.71553

>  <vsurf_EDmin2>
-2.69471

>  <vsurf_EDmin3>
-2.62417

>  <vsurf_EWmin1>
-5.75633

>  <vsurf_EWmin2>
-5.44027

>  <vsurf_EWmin3>
-5.32466

>  <vsurf_G>
1.39113

>  <vsurf_HB1>
408.875

>  <vsurf_HB2>
471.625

>  <vsurf_HB3>
397.875

>  <vsurf_HB4>
161.25

>  <vsurf_HB5>
56.25

>  <vsurf_HB6>
14.5

>  <vsurf_HB7>
1.5

>  <vsurf_HB8>
0

>  <vsurf_HL1>
0.139813

>  <vsurf_HL2>
0.0431428

>  <vsurf_ID1>
0.81861

>  <vsurf_ID2>
0.786767

>  <vsurf_ID3>
0.96573

>  <vsurf_ID4>
1.20868

>  <vsurf_ID5>
1.45286

>  <vsurf_ID6>
1.32718

>  <vsurf_ID7>
0.707994

>  <vsurf_ID8>
1.33872

>  <vsurf_IW1>
0.482606

>  <vsurf_IW2>
0.93358

>  <vsurf_IW3>
1.08523

>  <vsurf_IW4>
1.26962

>  <vsurf_IW5>
1.31203

>  <vsurf_IW6>
1.81921

>  <vsurf_IW7>
3.44677

>  <vsurf_IW8>
0

>  <vsurf_R>
1.4474

>  <vsurf_S>
637.87

>  <vsurf_V>
923.25

>  <vsurf_W1>
1589.5

>  <vsurf_W2>
966

>  <vsurf_W3>
487.125

>  <vsurf_W4>
172.5

>  <vsurf_W5>
59.875

>  <vsurf_W6>
15.375

>  <vsurf_W7>
1.5

>  <vsurf_W8>
0

>  <vsurf_Wp1>
1180.63

>  <vsurf_Wp2>
494.375

>  <vsurf_Wp3>
89.25

>  <vsurf_Wp4>
11.25

>  <vsurf_Wp5>
3.625

>  <vsurf_Wp6>
0.875

>  <vsurf_Wp7>
0

>  <vsurf_Wp8>
0

>  <dens>
1.11784

>  <glob>
0.0472928

>  <std_dim1>
5.15959

>  <std_dim2>
1.70886

>  <std_dim3>
1.12205

>  <vol>
399.375

>  <logP(o/w)>
1.707

$$$$
D14.cdx
  MOE2008           3D

 53 57  0  0  0  0  0  0  0  0999 V2000
   -6.8080   14.9390   -2.0990 C   0  0  0  0  0  0  0  0  0  0  0  0
   -7.4370   15.4030   -2.8530 H   0  0  0  0  0  0  0  0  0  0  0  0
   -7.3800   14.2690   -1.0220 C   0  0  0  0  0  0  0  0  0  0  0  0
   -8.4650   14.2140   -0.9500 H   0  0  0  0  0  0  0  0  0  0  0  0
   -6.5820   13.6570   -0.0450 C   0  0  0  0  0  0  0  0  0  0  0  0
   -5.1860   13.7640   -0.1860 C   0  0  0  0  0  0  0  0  0  0  0  0
   -4.5770   14.4310   -1.2560 C   0  0  0  0  0  0  0  0  0  0  0  0
   -5.4190   15.0210   -2.2230 C   0  0  0  0  0  0  0  0  0  0  0  0
   -4.1780   13.3040    0.6300 N   0  0  0  0  0  0  0  0  0  0  0  0
   -4.3260   12.8000    1.4950 H   0  0  0  0  0  0  0  0  0  0  0  0
   -2.9590   13.6290    0.1050 C   0  0  0  0  0  0  0  0  0  0  0  0
   -2.0530   13.3280    0.6180 H   0  0  0  0  0  0  0  0  0  0  0  0
   -3.1550   14.3320   -1.0700 C   0  0  0  0  0  0  0  0  0  0  0  0
   -2.0840   14.8580   -1.9100 C   0  0  0  0  0  0  0  0  0  0  0  0
   -0.6380   14.6580   -1.4880 C   0  0  0  0  0  0  0  0  0  0  0  0
    0.0390   15.7810   -1.0160 N   0  0  0  0  0  0  0  0  0  0  0  0
    1.4430   15.6550   -0.6260 C   0  0  0  0  0  0  0  0  0  0  0  0
    1.4540   15.4400    0.4490 H   0  0  0  0  0  0  0  0  0  0  0  0
    1.9040   14.8030   -1.1380 H   0  0  0  0  0  0  0  0  0  0  0  0
    2.2330   16.9350   -0.9170 C   0  0  0  0  0  0  0  0  0  0  0  0
    2.2480   17.1160   -1.9980 H   0  0  0  0  0  0  0  0  0  0  0  0
    3.2660   16.8220   -0.5740 H   0  0  0  0  0  0  0  0  0  0  0  0
    1.6290   18.1220   -0.2930 N   0  0  0  0  0  0  0  0  0  0  0  0
    0.2070   18.0360    0.0480 C   0  0  0  0  0  0  0  0  0  0  0  0
    0.1550   17.6530    1.0740 H   0  0  0  0  0  0  0  0  0  0  0  0
   -0.2410   19.0360    0.0480 H   0  0  0  0  0  0  0  0  0  0  0  0
   -0.5690   17.1130   -0.8960 C   0  0  0  0  0  0  0  0  0  0  0  0
   -0.5860   17.5410   -1.9060 H   0  0  0  0  0  0  0  0  0  0  0  0
   -1.6050   17.0160   -0.5560 H   0  0  0  0  0  0  0  0  0  0  0  0
    2.3170   19.2940    0.0200 C   0  0  0  0  0  0  0  0  0  0  0  0
    3.7090   19.4510   -0.4580 C   0  0  0  0  0  0  0  0  0  0  0  0
   -2.2680   15.4790   -2.9520 O   0  0  0  0  0  0  0  0  0  0  0  0
   -0.1660   13.5300   -1.5820 O   0  0  0  0  0  0  0  0  0  0  0  0
    1.8420   20.2140    0.6810 O   0  0  0  0  0  0  0  0  0  0  0  0
   -4.9250   15.6800   -3.2800 F   0  0  0  0  0  0  0  0  0  0  0  0
    3.9970   19.4410   -1.8260 C   0  0  0  0  0  0  0  0  0  0  0  0
    3.2050   19.3120   -2.5590 H   0  0  0  0  0  0  0  0  0  0  0  0
    5.3140   19.6130   -2.2530 C   0  0  0  0  0  0  0  0  0  0  0  0
    5.5470   19.6020   -3.3150 H   0  0  0  0  0  0  0  0  0  0  0  0
    6.3320   19.8100   -1.3180 C   0  0  0  0  0  0  0  0  0  0  0  0
    7.3560   19.9480   -1.6540 H   0  0  0  0  0  0  0  0  0  0  0  0
    6.0370   19.8440    0.0460 C   0  0  0  0  0  0  0  0  0  0  0  0
    6.8310   20.0120    0.7700 H   0  0  0  0  0  0  0  0  0  0  0  0
    4.7220   19.6710    0.4800 C   0  0  0  0  0  0  0  0  0  0  0  0
    4.4910   19.7090    1.5420 H   0  0  0  0  0  0  0  0  0  0  0  0
   -7.1810   12.9450    1.0660 C   0  0  0  0  0  0  0  0  0  0  0  0
   -7.9310   13.3750    2.1420 C   0  0  0  0  0  0  0  0  0  0  0  0
   -8.2210   14.3890    2.3810 H   0  0  0  0  0  0  0  0  0  0  0  0
   -8.2910   12.3260    2.9500 N   0  0  0  0  0  0  0  0  0  0  0  0
   -7.7890   11.2610    2.3700 C   0  0  0  0  0  0  0  0  0  0  0  0
   -7.8820   10.2430    2.7240 H   0  0  0  0  0  0  0  0  0  0  0  0
   -7.1160   11.5810    1.2250 N   0  0  0  0  0  0  0  0  0  0  0  0
   -6.6560   10.9310    0.6030 H   0  0  0  0  0  0  0  0  0  0  0  0
  1  2  1  0  0  0  0
  1  3  1  0  0  0  0
  1  8  2  0  0  0  0
  3  4  1  0  0  0  0
  3  5  2  0  0  0  0
  5  6  1  0  0  0  0
  5 46  1  0  0  0  0
  6  7  2  0  0  0  0
  6  9  1  0  0  0  0
  7  8  1  0  0  0  0
  7 13  1  0  0  0  0
  8 35  1  0  0  0  0
  9 10  1  0  0  0  0
  9 11  1  0  0  0  0
 11 12  1  0  0  0  0
 11 13  2  0  0  0  0
 13 14  1  0  0  0  0
 14 15  1  0  0  0  0
 14 32  2  0  0  0  0
 15 16  1  0  0  0  0
 15 33  2  0  0  0  0
 16 17  1  0  0  0  0
 16 27  1  0  0  0  0
 17 18  1  0  0  0  0
 17 19  1  0  0  0  0
 17 20  1  0  0  0  0
 20 21  1  0  0  0  0
 20 22  1  0  0  0  0
 20 23  1  0  0  0  0
 23 24  1  0  0  0  0
 23 30  1  0  0  0  0
 24 25  1  0  0  0  0
 24 26  1  0  0  0  0
 24 27  1  0  0  0  0
 27 28  1  0  0  0  0
 27 29  1  0  0  0  0
 30 31  1  0  0  0  0
 30 34  2  0  0  0  0
 31 36  1  0  0  0  0
 31 44  2  0  0  0  0
 36 37  1  0  0  0  0
 36 38  2  0  0  0  0
 38 39  1  0  0  0  0
 38 40  1  0  0  0  0
 40 41  1  0  0  0  0
 40 42  2  0  0  0  0
 42 43  1  0  0  0  0
 42 44  1  0  0  0  0
 44 45  1  0  0  0  0
 46 47  2  0  0  0  0
 46 52  1  0  0  0  0
 47 48  1  0  0  0  0
 47 49  1  0  0  0  0
 49 50  2  0  0  0  0
 50 51  1  0  0  0  0
 50 52  1  0  0  0  0
 52 53  1  0  0  0  0
M  END
>  <Activity>
10.2218

>  <AM1_dipole>
4.73071

>  <AM1_E>
-134342

>  <AM1_Eele>
-1.04043e+006

>  <AM1_HF>
14.6378

>  <AM1_HOMO>
-8.74888

>  <AM1_IP>
8.74888

>  <AM1_LUMO>
-0.87184

>  <diameter>
17

>  <petitjean>
0.470588

>  <petitjeanSC>
0.888889

>  <radius>
9

>  <VDistEq>
3.84292

>  <VDistMa>
9.77179

>  <weinerPath>
3443

>  <weinerPol>
56

>  <BCUT_PEOE_0>
-2.71188

>  <BCUT_PEOE_1>
-0.644585

>  <BCUT_PEOE_2>
0.665939

>  <BCUT_PEOE_3>
2.6503

>  <BCUT_SLOGP_0>
-2.86001

>  <BCUT_SLOGP_1>
-0.561281

>  <BCUT_SLOGP_2>
0.788276

>  <BCUT_SLOGP_3>
2.50365

>  <BCUT_SMR_0>
-2.43203

>  <BCUT_SMR_1>
-0.47406

>  <BCUT_SMR_2>
0.831672

>  <BCUT_SMR_3>
2.92026

>  <GCUT_PEOE_0>
-0.858899

>  <GCUT_PEOE_1>
-0.401963

>  <GCUT_PEOE_2>
0.0792948

>  <GCUT_PEOE_3>
2.71019

>  <GCUT_SLOGP_0>
-0.976492

>  <GCUT_SLOGP_1>
-0.332444

>  <GCUT_SLOGP_2>
0.204802

>  <GCUT_SLOGP_3>
2.717

>  <GCUT_SMR_0>
-0.508917

>  <GCUT_SMR_1>
-0.217982

>  <GCUT_SMR_2>
0.220622

>  <GCUT_SMR_3>
2.98729

>  <a_aro>
20

>  <a_count>
53

>  <a_IC>
90.7376

>  <a_ICM>
1.71203

>  <a_nH>
20

>  <b_1rotN>
6

>  <b_1rotR>
0.162162

>  <b_ar>
21

>  <b_count>
57

>  <b_double>
3

>  <b_rotN>
6

>  <b_rotR>
0.162162

>  <b_single>
33

>  <b_triple>
0

>  <chi0v>
17.5463

>  <chi0v_C>
13.6019

>  <chi1v>
10.5059

>  <chi1v_C>
6.39872

>  <chiral>
0

>  <chiral_u>
0

>  <nmol>
1

>  <reactive>
0

>  <rings>
5

>  <Weight>
445.454

>  <a_heavy>
33

>  <a_nB>
0

>  <a_nBr>
0

>  <a_nC>
24

>  <a_nCl>
0

>  <a_nF>
1

>  <a_nI>
0

>  <a_nN>
5

>  <a_nO>
3

>  <a_nP>
0

>  <a_nS>
0

>  <b_heavy>
37

>  <chi0>
22.949

>  <chi0_C>
15.673

>  <chi1>
16.0417

>  <chi1_C>
8.61616

>  <FCharge>
0

>  <VAdjEq>
0.358235

>  <VAdjMa>
6.20945

>  <zagreb>
180

>  <balabanJ>
1.1637

>  <PEOE_PC+>
2.9876

>  <PEOE_PC->
-2.9876

>  <PEOE_RPC+>
0.0987752

>  <PEOE_RPC->
0.120286

>  <PEOE_VSA+0>
76.1408

>  <PEOE_VSA+1>
126.102

>  <PEOE_VSA+2>
13.2862

>  <PEOE_VSA+3>
17.238

>  <PEOE_VSA+4>
0

>  <PEOE_VSA+5>
34.3576

>  <PEOE_VSA+6>
0

>  <PEOE_VSA-0>
49.0196

>  <PEOE_VSA-1>
36.7647

>  <PEOE_VSA-2>
0

>  <PEOE_VSA-3>
0

>  <PEOE_VSA-4>
17.5912

>  <PEOE_VSA-5>
40.7008

>  <PEOE_VSA-6>
0.273782

>  <PEOE_VSA_FHYD>
0.77417

>  <PEOE_VSA_FNEG>
0.350811

>  <PEOE_VSA_FPNEG>
0.142331

>  <PEOE_VSA_FPOL>
0.22583

>  <PEOE_VSA_FPOS>
0.649189

>  <PEOE_VSA_FPPOS>
0.0834986

>  <PEOE_VSA_HYD>
318.551

>  <PEOE_VSA_NEG>
144.35

>  <PEOE_VSA_PNEG>
58.5658

>  <PEOE_VSA_POL>
92.9233

>  <PEOE_VSA_POS>
267.125

>  <PEOE_VSA_PPOS>
34.3576

>  <PC+>
5.579

>  <PC->
-5.58

>  <Q_PC+>
5.579

>  <Q_PC->
-5.58

>  <Q_RPC+>
0.117584

>  <Q_RPC->
0.11828

>  <Q_VSA_FHYD>
0.57666

>  <Q_VSA_FNEG>
0.428774

>  <Q_VSA_FPNEG>
0.169704

>  <Q_VSA_FPOL>
0.42334

>  <Q_VSA_FPOS>
0.571226

>  <Q_VSA_FPPOS>
0.253636

>  <Q_VSA_HYD>
237.281

>  <Q_VSA_NEG>
176.43

>  <Q_VSA_PNEG>
69.8288

>  <Q_VSA_POL>
174.194

>  <Q_VSA_POS>
235.045

>  <Q_VSA_PPOS>
104.365

>  <RPC+>
0.117584

>  <RPC->
0.11828

>  <lip_acc>
8

>  <lip_don>
2

>  <lip_druglike>
1

>  <lip_violation>
0

>  <opr_brigid>
27

>  <opr_leadlike>
1

>  <opr_nring>
5

>  <opr_nrot>
6

>  <opr_violation>
1

>  <E>
100.437

>  <E_ang>
7.25849

>  <E_ele>
29.4485

>  <E_nb>
76.5758

>  <E_oop>
0.0551798

>  <E_sol>
-22.4141

>  <E_stb>
0.290183

>  <E_str>
6.23325

>  <E_strain>
0.00529622

>  <E_tor>
10.0244

>  <E_vdw>
47.1273

>  <E_rele>
0

>  <E_rnb>
1.42109e-014

>  <E_rsol>
1.42109e-014

>  <E_rvdw>
0

>  <Kier1>
24.6837

>  <Kier2>
10.9477

>  <Kier3>
5.12

>  <KierA1>
16.5747

>  <KierA2>
7.25164

>  <KierA3>
3.35785

>  <KierFlex>
3.64222

>  <logS>
-5.32397

>  <MNDO_dipole>
2.85175

>  <MNDO_E>
-134456

>  <MNDO_Eele>
-1.03319e+006

>  <MNDO_HF>
-9.66782

>  <MNDO_HOMO>
-9.02628

>  <MNDO_IP>
9.02628

>  <MNDO_LUMO>
-0.87794

>  <apol>
64.0389

>  <bpol>
32.5411

>  <mr>
12.1018

>  <dipole>
1.148

>  <dipoleX>
0.643469

>  <dipoleY>
-0.944348

>  <dipoleZ>
0.109847

>  <pmi>
13045.3

>  <pmiX>
8888.42

>  <pmiY>
3155.43

>  <pmiZ>
1001.41

>  <rgyr>
5.41159

>  <a_acc>
5

>  <a_acid>
0

>  <a_base>
0

>  <a_don>
3

>  <a_hyd>
21

>  <vsa_acc>
40.7008

>  <vsa_acid>
0

>  <vsa_base>
0

>  <vsa_don>
5.68258

>  <vsa_hyd>
275.619

>  <vsa_other>
59.1481

>  <vsa_pol>
57.7485

>  <PM3_dipole>
2.94832

>  <PM3_E>
-121818

>  <PM3_Eele>
-1.01911e+006

>  <PM3_HF>
-42.1939

>  <PM3_HOMO>
-8.79286

>  <PM3_IP>
8.79286

>  <PM3_LUMO>
-0.92426

>  <SlogP>
2.8644

>  <SlogP_VSA0>
0

>  <SlogP_VSA1>
39.2393

>  <SlogP_VSA2>
66.5543

>  <SlogP_VSA3>
73.7583

>  <SlogP_VSA4>
54.0956

>  <SlogP_VSA5>
0

>  <SlogP_VSA6>
0

>  <SlogP_VSA7>
185.376

>  <SlogP_VSA8>
0

>  <SlogP_VSA9>
14.9601

>  <SMR>
11.9094

>  <SMR_VSA0>
71.5866

>  <SMR_VSA1>
37.9943

>  <SMR_VSA2>
42.6921

>  <SMR_VSA3>
6.37115

>  <SMR_VSA4>
10.6594

>  <SMR_VSA5>
174.717

>  <SMR_VSA6>
89.9635

>  <SMR_VSA7>
0

>  <ASA>
711.422

>  <ASA+>
345.085

>  <ASA->
259.195

>  <ASA_H>
521.832

>  <ASA_P>
189.59

>  <CASA+>
1925.23

>  <CASA->
1446.31

>  <DASA>
85.8905

>  <DCASA>
478.924

>  <FASA+>
0.485064

>  <FASA->
0.364333

>  <FASA_H>
0.733506

>  <FASA_P>
0.266494

>  <FCASA+>
2.70617

>  <FCASA->
2.03298

>  <VSA>
440.113

>  <TPSA>
102.16

>  <density>
0.784232

>  <vdw_area>
411.475

>  <vdw_vol>
568.013

>  <vsurf_A>
2.2989

>  <vsurf_CP>
0.086472

>  <vsurf_CW1>
2.68455

>  <vsurf_CW2>
2.2466

>  <vsurf_CW3>
1.47678

>  <vsurf_CW4>
0.726317

>  <vsurf_CW5>
0.307631

>  <vsurf_CW6>
0.0831165

>  <vsurf_CW7>
0.00513396

>  <vsurf_CW8>
0

>  <vsurf_D1>
954.5

>  <vsurf_D2>
562

>  <vsurf_D3>
415.875

>  <vsurf_D4>
349.625

>  <vsurf_D5>
299.625

>  <vsurf_D6>
244

>  <vsurf_D7>
146.5

>  <vsurf_D8>
85

>  <vsurf_DD12>
2.59808

>  <vsurf_DD13>
3.77492

>  <vsurf_DD23>
1.22474

>  <vsurf_DW12>
0.707107

>  <vsurf_DW13>
5.12348

>  <vsurf_DW23>
5.59017

>  <vsurf_EDmin1>
-2.69885

>  <vsurf_EDmin2>
-2.65774

>  <vsurf_EDmin3>
-2.6455

>  <vsurf_EWmin1>
-5.67225

>  <vsurf_EWmin2>
-5.45866

>  <vsurf_EWmin3>
-5.23123

>  <vsurf_G>
1.39678

>  <vsurf_HB1>
396.625

>  <vsurf_HB2>
463.875

>  <vsurf_HB3>
389

>  <vsurf_HB4>
151.875

>  <vsurf_HB5>
46.125

>  <vsurf_HB6>
8.75

>  <vsurf_HB7>
1.125

>  <vsurf_HB8>
0

>  <vsurf_HL1>
0.148783

>  <vsurf_HL2>
0.0396854

>  <vsurf_ID1>
0.788339

>  <vsurf_ID2>
0.765022

>  <vsurf_ID3>
0.920321

>  <vsurf_ID4>
1.16835

>  <vsurf_ID5>
1.43312

>  <vsurf_ID6>
1.34311

>  <vsurf_ID7>
0.539851

>  <vsurf_ID8>
0.917372

>  <vsurf_IW1>
0.548232

>  <vsurf_IW2>
1.09731

>  <vsurf_IW3>
1.29186

>  <vsurf_IW4>
1.52401

>  <vsurf_IW5>
1.51652

>  <vsurf_IW6>
1.21213

>  <vsurf_IW7>
3.45944

>  <vsurf_IW8>
0

>  <vsurf_R>
1.44802

>  <vsurf_S>
646.228

>  <vsurf_V>
935.75

>  <vsurf_W1>
1629

>  <vsurf_W2>
1013.75

>  <vsurf_W3>
526.625

>  <vsurf_W4>
188.625

>  <vsurf_W5>
61.875

>  <vsurf_W6>
13.875

>  <vsurf_W7>
1.375

>  <vsurf_W8>
0

>  <vsurf_Wp1>
1232.38

>  <vsurf_Wp2>
549.875

>  <vsurf_Wp3>
137.625

>  <vsurf_Wp4>
36.75

>  <vsurf_Wp5>
15.75

>  <vsurf_Wp6>
5.125

>  <vsurf_Wp7>
0.25

>  <vsurf_Wp8>
0

>  <dens>
1.10091

>  <glob>
0.0506736

>  <std_dim1>
5.36295

>  <std_dim2>
1.49819

>  <std_dim3>
1.20724

>  <vol>
404.625

>  <logP(o/w)>
1.888

$$$$
D14.cdx
  MOE2008           3D

 51 55  0  0  0  0  0  0  0  0999 V2000
   -6.7950   11.5130    0.4030 C   0  0  0  0  0  0  0  0  0  0  0  0
   -7.5510   12.2930    0.3730 H   0  0  0  0  0  0  0  0  0  0  0  0
   -7.0800   10.2800    0.9830 C   0  0  0  0  0  0  0  0  0  0  0  0
   -8.0730   10.1200    1.4020 H   0  0  0  0  0  0  0  0  0  0  0  0
   -6.1220    9.2510    1.0350 C   0  0  0  0  0  0  0  0  0  0  0  0
   -4.8590    9.5360    0.4670 C   0  0  0  0  0  0  0  0  0  0  0  0
   -4.5360   10.7660   -0.1200 C   0  0  0  0  0  0  0  0  0  0  0  0
   -5.5360   11.7620   -0.1440 C   0  0  0  0  0  0  0  0  0  0  0  0
   -3.7380    8.7400    0.3620 N   0  0  0  0  0  0  0  0  0  0  0  0
   -3.6920    7.7870    0.7050 H   0  0  0  0  0  0  0  0  0  0  0  0
   -2.7260    9.4160   -0.2590 C   0  0  0  0  0  0  0  0  0  0  0  0
   -1.7710    8.9290   -0.4200 H   0  0  0  0  0  0  0  0  0  0  0  0
   -3.1730   10.6860   -0.5750 C   0  0  0  0  0  0  0  0  0  0  0  0
   -2.3690   11.7130   -1.2330 C   0  0  0  0  0  0  0  0  0  0  0  0
   -0.9520   11.3980   -1.6750 C   0  0  0  0  0  0  0  0  0  0  0  0
    0.0740   11.7200   -0.7910 N   0  0  0  0  0  0  0  0  0  0  0  0
    1.4610   11.4130   -1.1460 C   0  0  0  0  0  0  0  0  0  0  0  0
    1.7880   10.6140   -0.4700 H   0  0  0  0  0  0  0  0  0  0  0  0
    1.5300   11.0290   -2.1690 H   0  0  0  0  0  0  0  0  0  0  0  0
    2.3730   12.6370   -0.9840 C   0  0  0  0  0  0  0  0  0  0  0  0
    2.1250   13.3960   -1.7360 H   0  0  0  0  0  0  0  0  0  0  0  0
    3.4070   12.3260   -1.1410 H   0  0  0  0  0  0  0  0  0  0  0  0
    2.1860   13.2670    0.3340 N   0  0  0  0  0  0  0  0  0  0  0  0
    0.7940   13.5810    0.6720 C   0  0  0  0  0  0  0  0  0  0  0  0
    0.7120   13.9840    1.6860 H   0  0  0  0  0  0  0  0  0  0  0  0
    0.4710   14.3660   -0.0220 H   0  0  0  0  0  0  0  0  0  0  0  0
   -0.1080   12.3500    0.5250 C   0  0  0  0  0  0  0  0  0  0  0  0
   -1.1490   12.6330    0.6980 H   0  0  0  0  0  0  0  0  0  0  0  0
    0.1600   11.5960    1.2740 H   0  0  0  0  0  0  0  0  0  0  0  0
    3.1900   13.5620    1.2510 C   0  0  0  0  0  0  0  0  0  0  0  0
    4.6030   13.4310    0.8320 C   0  0  0  0  0  0  0  0  0  0  0  0
   -2.7620   12.8560   -1.4440 O   0  0  0  0  0  0  0  0  0  0  0  0
   -0.8050   10.8760   -2.7750 O   0  0  0  0  0  0  0  0  0  0  0  0
    2.9840   13.9260    2.4050 O   0  0  0  0  0  0  0  0  0  0  0  0
   -5.3200   12.9680   -0.6870 F   0  0  0  0  0  0  0  0  0  0  0  0
    5.4410   12.5660    1.5410 C   0  0  0  0  0  0  0  0  0  0  0  0
    5.0520   11.9830    2.3720 H   0  0  0  0  0  0  0  0  0  0  0  0
    6.7830   12.4570    1.1770 C   0  0  0  0  0  0  0  0  0  0  0  0
    7.4410   11.7840    1.7210 H   0  0  0  0  0  0  0  0  0  0  0  0
    7.2840   13.2190    0.1200 C   0  0  0  0  0  0  0  0  0  0  0  0
    8.3310   13.1340   -0.1600 H   0  0  0  0  0  0  0  0  0  0  0  0
    6.4480   14.0990   -0.5720 C   0  0  0  0  0  0  0  0  0  0  0  0
    6.8480   14.6980   -1.3860 H   0  0  0  0  0  0  0  0  0  0  0  0
    5.1060   14.2140   -0.2130 C   0  0  0  0  0  0  0  0  0  0  0  0
    4.4620   14.9120   -0.7410 H   0  0  0  0  0  0  0  0  0  0  0  0
   -6.4430    7.9700    1.6500 C   0  0  0  0  0  0  0  0  0  0  0  0
   -7.6850    7.7190    2.1930 N   0  0  0  0  0  0  0  0  0  0  0  0
   -7.5520    6.4930    2.6290 C   0  0  0  0  0  0  0  0  0  0  0  0
   -8.2740    5.8680    3.1330 H   0  0  0  0  0  0  0  0  0  0  0  0
   -6.3260    5.9580    2.4040 O   0  0  0  0  0  0  0  0  0  0  0  0
   -5.5810    6.9420    1.7510 N   0  0  0  0  0  0  0  0  0  0  0  0
  1  2  1  0  0  0  0
  1  3  1  0  0  0  0
  1  8  2  0  0  0  0
  3  4  1  0  0  0  0
  3  5  2  0  0  0  0
  5  6  1  0  0  0  0
  5 46  1  0  0  0  0
  6  7  2  0  0  0  0
  6  9  1  0  0  0  0
  7  8  1  0  0  0  0
  7 13  1  0  0  0  0
  8 35  1  0  0  0  0
  9 10  1  0  0  0  0
  9 11  1  0  0  0  0
 11 12  1  0  0  0  0
 11 13  2  0  0  0  0
 13 14  1  0  0  0  0
 14 15  1  0  0  0  0
 14 32  2  0  0  0  0
 15 16  1  0  0  0  0
 15 33  2  0  0  0  0
 16 17  1  0  0  0  0
 16 27  1  0  0  0  0
 17 18  1  0  0  0  0
 17 19  1  0  0  0  0
 17 20  1  0  0  0  0
 20 21  1  0  0  0  0
 20 22  1  0  0  0  0
 20 23  1  0  0  0  0
 23 24  1  0  0  0  0
 23 30  1  0  0  0  0
 24 25  1  0  0  0  0
 24 26  1  0  0  0  0
 24 27  1  0  0  0  0
 27 28  1  0  0  0  0
 27 29  1  0  0  0  0
 30 31  1  0  0  0  0
 30 34  2  0  0  0  0
 31 36  1  0  0  0  0
 31 44  2  0  0  0  0
 36 37  1  0  0  0  0
 36 38  2  0  0  0  0
 38 39  1  0  0  0  0
 38 40  1  0  0  0  0
 40 41  1  0  0  0  0
 40 42  2  0  0  0  0
 42 43  1  0  0  0  0
 42 44  1  0  0  0  0
 44 45  1  0  0  0  0
 46 47  1  0  0  0  0
 46 51  2  0  0  0  0
 47 48  2  0  0  0  0
 48 49  1  0  0  0  0
 48 50  1  0  0  0  0
 50 51  1  0  0  0  0
M  END
>  <Activity>
10.301

>  <AM1_dipole>
5.38878

>  <AM1_E>
-138104

>  <AM1_Eele>
-1.04959e+006

>  <AM1_HF>
14.6929

>  <AM1_HOMO>
-8.91694

>  <AM1_IP>
8.91694

>  <AM1_LUMO>
-1.14496

>  <diameter>
17

>  <petitjean>
0.470588

>  <petitjeanSC>
0.888889

>  <radius>
9

>  <VDistEq>
3.84292

>  <VDistMa>
9.77179

>  <weinerPath>
3443

>  <weinerPol>
56

>  <BCUT_PEOE_0>
-2.71188

>  <BCUT_PEOE_1>
-0.641005

>  <BCUT_PEOE_2>
0.628556

>  <BCUT_PEOE_3>
2.6503

>  <BCUT_SLOGP_0>
-2.86001

>  <BCUT_SLOGP_1>
-0.546981

>  <BCUT_SLOGP_2>
0.766764

>  <BCUT_SLOGP_3>
2.50354

>  <BCUT_SMR_0>
-2.43203

>  <BCUT_SMR_1>
-0.446641

>  <BCUT_SMR_2>
0.812977

>  <BCUT_SMR_3>
2.92026

>  <GCUT_PEOE_0>
-0.857906

>  <GCUT_PEOE_1>
-0.421209

>  <GCUT_PEOE_2>
0.0762745

>  <GCUT_PEOE_3>
2.69316

>  <GCUT_SLOGP_0>
-0.976493

>  <GCUT_SLOGP_1>
-0.321869

>  <GCUT_SLOGP_2>
0.178207

>  <GCUT_SLOGP_3>
2.68592

>  <GCUT_SMR_0>
-0.508915

>  <GCUT_SMR_1>
-0.216821

>  <GCUT_SMR_2>
0.222746

>  <GCUT_SMR_3>
2.96486

>  <a_aro>
20

>  <a_count>
51

>  <a_IC>
90.5835

>  <a_ICM>
1.77615

>  <a_nH>
18

>  <b_1rotN>
6

>  <b_1rotR>
0.162162

>  <b_ar>
21

>  <b_count>
55

>  <b_double>
3

>  <b_rotN>
6

>  <b_rotR>
0.162162

>  <b_single>
31

>  <b_triple>
0

>  <chi0v>
17.3244

>  <chi0v_C>
13.0246

>  <chi1v>
10.2859

>  <chi1v_C>
6.11004

>  <chiral>
0

>  <chiral_u>
0

>  <nmol>
1

>  <reactive>
0

>  <rings>
5

>  <Weight>
447.426

>  <a_heavy>
33

>  <a_nB>
0

>  <a_nBr>
0

>  <a_nC>
23

>  <a_nCl>
0

>  <a_nF>
1

>  <a_nI>
0

>  <a_nN>
5

>  <a_nO>
4

>  <a_nP>
0

>  <a_nS>
0

>  <b_heavy>
37

>  <chi0>
22.949

>  <chi0_C>
14.9659

>  <chi1>
16.0417

>  <chi1_C>
8.20791

>  <FCharge>
0

>  <VAdjEq>
0.358235

>  <VAdjMa>
6.20945

>  <zagreb>
180

>  <balabanJ>
1.16371

>  <PEOE_PC+>
2.98941

>  <PEOE_PC->
-2.98941

>  <PEOE_RPC+>
0.0987153

>  <PEOE_RPC->
0.120199

>  <PEOE_VSA+0>
76.1408

>  <PEOE_VSA+1>
77.1543

>  <PEOE_VSA+2>
13.2862

>  <PEOE_VSA+3>
8.61901

>  <PEOE_VSA+4>
34.1865

>  <PEOE_VSA+5>
34.3576

>  <PEOE_VSA+6>
0

>  <PEOE_VSA-0>
49.0196

>  <PEOE_VSA-1>
47.65

>  <PEOE_VSA-2>
0

>  <PEOE_VSA-3>
5.68258

>  <PEOE_VSA-4>
11.9086

>  <PEOE_VSA-5>
40.7008

>  <PEOE_VSA-6>
6.03925

>  <PEOE_VSA_FHYD>
0.685746

>  <PEOE_VSA_FNEG>
0.397783

>  <PEOE_VSA_FPNEG>
0.144903

>  <PEOE_VSA_FPOL>
0.314254

>  <PEOE_VSA_FPOS>
0.602217

>  <PEOE_VSA_FPPOS>
0.169351

>  <PEOE_VSA_HYD>
277.553

>  <PEOE_VSA_NEG>
161.001

>  <PEOE_VSA_PNEG>
58.6486

>  <PEOE_VSA_POL>
127.193

>  <PEOE_VSA_POS>
243.744

>  <PEOE_VSA_PPOS>
68.544

>  <PC+>
5.803

>  <PC->
-5.804

>  <Q_PC+>
5.803

>  <Q_PC->
-5.804

>  <Q_RPC+>
0.113045

>  <Q_RPC->
0.113715

>  <Q_VSA_FHYD>
0.49611

>  <Q_VSA_FNEG>
0.460828

>  <Q_VSA_FPNEG>
0.182867

>  <Q_VSA_FPOL>
0.50389

>  <Q_VSA_FPOS>
0.539172

>  <Q_VSA_FPPOS>
0.321023

>  <Q_VSA_HYD>
200.798

>  <Q_VSA_NEG>
186.518

>  <Q_VSA_PNEG>
74.0145

>  <Q_VSA_POL>
203.947

>  <Q_VSA_POS>
218.227

>  <Q_VSA_PPOS>
129.932

>  <RPC+>
0.113045

>  <RPC->
0.113715

>  <lip_acc>
9

>  <lip_don>
1

>  <lip_druglike>
1

>  <lip_violation>
0

>  <opr_brigid>
27

>  <opr_leadlike>
0

>  <opr_nring>
5

>  <opr_nrot>
6

>  <opr_violation>
2

>  <E>
101.849

>  <E_ang>
8.93221

>  <E_ele>
34.2618

>  <E_nb>
83.6984

>  <E_oop>
0.0355519

>  <E_sol>
-19.8422

>  <E_stb>
0.442565

>  <E_str>
6.89801

>  <E_strain>
0.00464006

>  <E_tor>
1.84181

>  <E_vdw>
49.4367

>  <E_rele>
0

>  <E_rnb>
0

>  <E_rsol>
0

>  <E_rvdw>
0

>  <Kier1>
24.6837

>  <Kier2>
10.9477

>  <Kier3>
5.12

>  <KierA1>
16.8041

>  <KierA2>
7.3557

>  <KierA3>
3.40729

>  <KierFlex>
3.74563

>  <logS>
-6.2916

>  <MNDO_dipole>
5.60718

>  <MNDO_E>
-138259

>  <MNDO_Eele>
-1.04078e+006

>  <MNDO_HF>
-42.4395

>  <MNDO_HOMO>
-9.03169

>  <MNDO_IP>
9.03169

>  <MNDO_LUMO>
-1.10994

>  <apol>
61.7473

>  <bpol>
31.6107

>  <mr>
11.8038

>  <dipole>
1.38593

>  <dipoleX>
0.204083

>  <dipoleY>
-1.30736

>  <dipoleZ>
0.412264

>  <pmi>
12680.7

>  <pmiX>
9483.09

>  <pmiY>
2410.38

>  <pmiZ>
787.267

>  <rgyr>
5.32368

>  <a_acc>
5

>  <a_acid>
0

>  <a_base>
0

>  <a_don>
1

>  <a_hyd>
19

>  <vsa_acc>
57.2686

>  <vsa_acid>
0

>  <vsa_base>
0

>  <vsa_don>
5.68258

>  <vsa_hyd>
248.62

>  <vsa_other>
78

>  <vsa_pol>
62.9512

>  <PM3_dipole>
5.41109

>  <PM3_E>
-125104

>  <PM3_Eele>
-1.03264e+006

>  <PM3_HF>
-39.2962

>  <PM3_HOMO>
-8.97118

>  <PM3_IP>
8.97118

>  <PM3_LUMO>
-1.37806

>  <SlogP>
2.5243

>  <SlogP_VSA0>
0

>  <SlogP_VSA1>
58.8359

>  <SlogP_VSA2>
49.7688

>  <SlogP_VSA3>
73.7583

>  <SlogP_VSA4>
54.0956

>  <SlogP_VSA5>
9.73412

>  <SlogP_VSA6>
0

>  <SlogP_VSA7>
170.425

>  <SlogP_VSA8>
0

>  <SlogP_VSA9>
14.9601

>  <SMR>
11.4805

>  <SMR_VSA0>
81.3208

>  <SMR_VSA1>
57.5909

>  <SMR_VSA2>
25.9065

>  <SMR_VSA3>
6.37115

>  <SMR_VSA4>
10.2306

>  <SMR_VSA5>
160.194

>  <SMR_VSA6>
89.9635

>  <SMR_VSA7>
0

>  <ASA>
689.797

>  <ASA+>
293.395

>  <ASA->
290.107

>  <ASA_H>
470.425

>  <ASA_P>
219.372

>  <CASA+>
1702.57

>  <CASA->
1683.78

>  <DASA>
3.28867

>  <DCASA>
18.7941

>  <FASA+>
0.425336

>  <FASA->
0.420568

>  <FASA_H>
0.681976

>  <FASA_P>
0.318024

>  <FCASA+>
2.46822

>  <FCASA->
2.44098

>  <VSA>
430.404

>  <TPSA>
112.4

>  <density>
0.810288

>  <vdw_area>
404.745

>  <vdw_vol>
552.182

>  <vsurf_A>
2.3884

>  <vsurf_CP>
0.0804492

>  <vsurf_CW1>
2.68213

>  <vsurf_CW2>
2.24529

>  <vsurf_CW3>
1.57392

>  <vsurf_CW4>
0.750021

>  <vsurf_CW5>
0.33216

>  <vsurf_CW6>
0.12459

>  <vsurf_CW7>
0.0287203

>  <vsurf_CW8>
0.0103558

>  <vsurf_D1>
929.5

>  <vsurf_D2>
545.75

>  <vsurf_D3>
407.375

>  <vsurf_D4>
337.125

>  <vsurf_D5>
287.5

>  <vsurf_D6>
226.875

>  <vsurf_D7>
137.875

>  <vsurf_D8>
81.75

>  <vsurf_DD12>
0.5

>  <vsurf_DD13>
5.3619

>  <vsurf_DD23>
5.14782

>  <vsurf_DW12>
0.5

>  <vsurf_DW13>
0.707107

>  <vsurf_DW23>
0.5

>  <vsurf_EDmin1>
-2.75669

>  <vsurf_EDmin2>
-2.7206

>  <vsurf_EDmin3>
-2.69928

>  <vsurf_EWmin1>
-7.59851

>  <vsurf_EWmin2>
-7.24745

>  <vsurf_EWmin3>
-6.90631

>  <vsurf_G>
1.38435

>  <vsurf_HB1>
402.75

>  <vsurf_HB2>
497.875

>  <vsurf_HB3>
456.125

>  <vsurf_HB4>
180.5

>  <vsurf_HB5>
65.75

>  <vsurf_HB6>
23

>  <vsurf_HB7>
5.5

>  <vsurf_HB8>
1.875

>  <vsurf_HL1>
0.16815

>  <vsurf_HL2>
0.0689655

>  <vsurf_ID1>
1.08375

>  <vsurf_ID2>
1.00902

>  <vsurf_ID3>
1.17568

>  <vsurf_ID4>
1.52013

>  <vsurf_ID5>
1.8943

>  <vsurf_ID6>
2.12625

>  <vsurf_ID7>
1.03769

>  <vsurf_ID8>
0.928678

>  <vsurf_IW1>
0.262065

>  <vsurf_IW2>
0.951535

>  <vsurf_IW3>
1.3664

>  <vsurf_IW4>
1.38854

>  <vsurf_IW5>
1.32369

>  <vsurf_IW6>
1.89667

>  <vsurf_IW7>
3.48427

>  <vsurf_IW8>
5.67762

>  <vsurf_R>
1.44968

>  <vsurf_S>
630.569

>  <vsurf_V>
914.125

>  <vsurf_W1>
1592.38

>  <vsurf_W2>
1005.5

>  <vsurf_W3>
541.25

>  <vsurf_W4>
190.625

>  <vsurf_W5>
68.5

>  <vsurf_W6>
23.25

>  <vsurf_W7>
5.5

>  <vsurf_W8>
1.875

>  <vsurf_Wp1>
1189.63

>  <vsurf_Wp2>
507.625

>  <vsurf_Wp3>
85.125

>  <vsurf_Wp4>
10.125

>  <vsurf_Wp5>
2.75

>  <vsurf_Wp6>
0.25

>  <vsurf_Wp7>
0

>  <vsurf_Wp8>
0

>  <dens>
1.13272

>  <glob>
0.047873

>  <std_dim1>
5.15194

>  <std_dim2>
1.64364

>  <std_dim3>
1.12724

>  <vol>
395

>  <logP(o/w)>
1.444

$$$$
D14.cdx
  MOE2008           3D

 51 55  0  0  0  0  0  0  0  0999 V2000
   -5.6350    6.5970   -0.7480 C   0  0  0  0  0  0  0  0  0  0  0  0
   -6.4150    7.3140   -0.9880 H   0  0  0  0  0  0  0  0  0  0  0  0
   -5.9430    5.4260   -0.0610 C   0  0  0  0  0  0  0  0  0  0  0  0
   -6.9790    5.2480    0.2270 H   0  0  0  0  0  0  0  0  0  0  0  0
   -4.9550    4.4780    0.2610 C   0  0  0  0  0  0  0  0  0  0  0  0
   -3.6360    4.7780   -0.1460 C   0  0  0  0  0  0  0  0  0  0  0  0
   -3.2900    5.9470   -0.8380 C   0  0  0  0  0  0  0  0  0  0  0  0
   -4.3210    6.8620   -1.1350 C   0  0  0  0  0  0  0  0  0  0  0  0
   -2.4730    4.0580    0.0180 N   0  0  0  0  0  0  0  0  0  0  0  0
   -2.4250    3.1600    0.4850 H   0  0  0  0  0  0  0  0  0  0  0  0
   -1.4140    4.7200   -0.5310 C   0  0  0  0  0  0  0  0  0  0  0  0
   -0.4230    4.2850   -0.4890 H   0  0  0  0  0  0  0  0  0  0  0  0
   -1.8730    5.9030   -1.0800 C   0  0  0  0  0  0  0  0  0  0  0  0
   -1.0290    6.8790   -1.7600 C   0  0  0  0  0  0  0  0  0  0  0  0
    0.4530    6.6000   -1.9180 C   0  0  0  0  0  0  0  0  0  0  0  0
    1.3140    7.2020   -1.0050 N   0  0  0  0  0  0  0  0  0  0  0  0
    2.7530    6.9430   -1.0850 C   0  0  0  0  0  0  0  0  0  0  0  0
    3.0190    6.3660   -0.1910 H   0  0  0  0  0  0  0  0  0  0  0  0
    2.9950    6.3300   -1.9580 H   0  0  0  0  0  0  0  0  0  0  0  0
    3.5590    8.2490   -1.1220 C   0  0  0  0  0  0  0  0  0  0  0  0
    3.3830    8.7750   -2.0680 H   0  0  0  0  0  0  0  0  0  0  0  0
    4.6220    8.0060   -1.0590 H   0  0  0  0  0  0  0  0  0  0  0  0
    3.1430    9.1620   -0.0440 N   0  0  0  0  0  0  0  0  0  0  0  0
    1.7000    9.4150    0.0270 C   0  0  0  0  0  0  0  0  0  0  0  0
    1.4470   10.0400    0.8890 H   0  0  0  0  0  0  0  0  0  0  0  0
    1.4340    9.9760   -0.8770 H   0  0  0  0  0  0  0  0  0  0  0  0
    0.9060    8.1050    0.0810 C   0  0  0  0  0  0  0  0  0  0  0  0
   -0.1650    8.3190    0.0510 H   0  0  0  0  0  0  0  0  0  0  0  0
    1.1120    7.5790    1.0210 H   0  0  0  0  0  0  0  0  0  0  0  0
    3.9850    9.7720    0.8830 C   0  0  0  0  0  0  0  0  0  0  0  0
    5.4480    9.6730    0.6930 C   0  0  0  0  0  0  0  0  0  0  0  0
   -1.4370    7.9440   -2.2140 O   0  0  0  0  0  0  0  0  0  0  0  0
    0.7920    5.8480   -2.8260 O   0  0  0  0  0  0  0  0  0  0  0  0
    3.5930   10.3950    1.8650 O   0  0  0  0  0  0  0  0  0  0  0  0
   -4.0840    8.0050   -1.7940 F   0  0  0  0  0  0  0  0  0  0  0  0
    6.0520   10.2200   -0.4450 C   0  0  0  0  0  0  0  0  0  0  0  0
    5.4530   10.7080   -1.2100 H   0  0  0  0  0  0  0  0  0  0  0  0
    7.4370   10.1440   -0.5900 C   0  0  0  0  0  0  0  0  0  0  0  0
    7.9150   10.5610   -1.4730 H   0  0  0  0  0  0  0  0  0  0  0  0
    8.2110    9.5390    0.4020 C   0  0  0  0  0  0  0  0  0  0  0  0
    9.2910    9.4840    0.2870 H   0  0  0  0  0  0  0  0  0  0  0  0
    7.6060    9.0140    1.5460 C   0  0  0  0  0  0  0  0  0  0  0  0
    8.2160    8.5560    2.3210 H   0  0  0  0  0  0  0  0  0  0  0  0
    6.2220    9.0860    1.6980 C   0  0  0  0  0  0  0  0  0  0  0  0
    5.7500    8.6880    2.5930 H   0  0  0  0  0  0  0  0  0  0  0  0
   -5.3140    3.2630    0.9780 C   0  0  0  0  0  0  0  0  0  0  0  0
   -6.4840    2.8510    1.4250 N   0  0  0  0  0  0  0  0  0  0  0  0
   -6.2650    1.6300    2.0330 N   0  0  0  0  0  0  0  0  0  0  0  0
   -4.9820    1.3910    1.9110 C   0  0  0  0  0  0  0  0  0  0  0  0
   -4.4150    0.5400    2.2540 H   0  0  0  0  0  0  0  0  0  0  0  0
   -4.3040    2.3730    1.2580 O   0  0  0  0  0  0  0  0  0  0  0  0
  1  2  1  0  0  0  0
  1  3  1  0  0  0  0
  1  8  2  0  0  0  0
  3  4  1  0  0  0  0
  3  5  2  0  0  0  0
  5  6  1  0  0  0  0
  5 46  1  0  0  0  0
  6  7  2  0  0  0  0
  6  9  1  0  0  0  0
  7  8  1  0  0  0  0
  7 13  1  0  0  0  0
  8 35  1  0  0  0  0
  9 10  1  0  0  0  0
  9 11  1  0  0  0  0
 11 12  1  0  0  0  0
 11 13  2  0  0  0  0
 13 14  1  0  0  0  0
 14 15  1  0  0  0  0
 14 32  2  0  0  0  0
 15 16  1  0  0  0  0
 15 33  2  0  0  0  0
 16 17  1  0  0  0  0
 16 27  1  0  0  0  0
 17 18  1  0  0  0  0
 17 19  1  0  0  0  0
 17 20  1  0  0  0  0
 20 21  1  0  0  0  0
 20 22  1  0  0  0  0
 20 23  1  0  0  0  0
 23 24  1  0  0  0  0
 23 30  1  0  0  0  0
 24 25  1  0  0  0  0
 24 26  1  0  0  0  0
 24 27  1  0  0  0  0
 27 28  1  0  0  0  0
 27 29  1  0  0  0  0
 30 31  1  0  0  0  0
 30 34  2  0  0  0  0
 31 36  1  0  0  0  0
 31 44  2  0  0  0  0
 36 37  1  0  0  0  0
 36 38  2  0  0  0  0
 38 39  1  0  0  0  0
 38 40  1  0  0  0  0
 40 41  1  0  0  0  0
 40 42  2  0  0  0  0
 42 43  1  0  0  0  0
 42 44  1  0  0  0  0
 44 45  1  0  0  0  0
 46 47  2  0  0  0  0
 46 51  1  0  0  0  0
 47 48  1  0  0  0  0
 48 49  2  0  0  0  0
 49 50  1  0  0  0  0
 49 51  1  0  0  0  0
M  END
>  <Activity>
10.301

>  <AM1_dipole>
6.09412

>  <AM1_E>
-138123

>  <AM1_Eele>
-1.05052e+006

>  <AM1_HF>
-3.75312

>  <AM1_HOMO>
-9.03139

>  <AM1_IP>
9.03139

>  <AM1_LUMO>
-1.34627

>  <diameter>
17

>  <petitjean>
0.470588

>  <petitjeanSC>
0.888889

>  <radius>
9

>  <VDistEq>
3.84292

>  <VDistMa>
9.77179

>  <weinerPath>
3443

>  <weinerPol>
56

>  <BCUT_PEOE_0>
-2.71188

>  <BCUT_PEOE_1>
-0.640932

>  <BCUT_PEOE_2>
0.629112

>  <BCUT_PEOE_3>
2.6503

>  <BCUT_SLOGP_0>
-2.86001

>  <BCUT_SLOGP_1>
-0.548025

>  <BCUT_SLOGP_2>
0.766633

>  <BCUT_SLOGP_3>
2.50357

>  <BCUT_SMR_0>
-2.43203

>  <BCUT_SMR_1>
-0.44651

>  <BCUT_SMR_2>
0.818159

>  <BCUT_SMR_3>
2.92026

>  <GCUT_PEOE_0>
-0.857826

>  <GCUT_PEOE_1>
-0.42071

>  <GCUT_PEOE_2>
0.0765598

>  <GCUT_PEOE_3>
2.69347

>  <GCUT_SLOGP_0>
-0.976492

>  <GCUT_SLOGP_1>
-0.322263

>  <GCUT_SLOGP_2>
0.178685

>  <GCUT_SLOGP_3>
2.688

>  <GCUT_SMR_0>
-0.508916

>  <GCUT_SMR_1>
-0.216431

>  <GCUT_SMR_2>
0.225392

>  <GCUT_SMR_3>
2.96452

>  <a_aro>
20

>  <a_count>
51

>  <a_IC>
90.5835

>  <a_ICM>
1.77615

>  <a_nH>
18

>  <b_1rotN>
6

>  <b_1rotR>
0.162162

>  <b_ar>
21

>  <b_count>
55

>  <b_double>
3

>  <b_rotN>
6

>  <b_rotR>
0.162162

>  <b_single>
31

>  <b_triple>
0

>  <chi0v>
17.3244

>  <chi0v_C>
13.0246

>  <chi1v>
10.2838

>  <chi1v_C>
6.11004

>  <chiral>
0

>  <chiral_u>
0

>  <nmol>
1

>  <reactive>
0

>  <rings>
5

>  <Weight>
447.426

>  <a_heavy>
33

>  <a_nB>
0

>  <a_nBr>
0

>  <a_nC>
23

>  <a_nCl>
0

>  <a_nF>
1

>  <a_nI>
0

>  <a_nN>
5

>  <a_nO>
4

>  <a_nP>
0

>  <a_nS>
0

>  <b_heavy>
37

>  <chi0>
22.949

>  <chi0_C>
14.9659

>  <chi1>
16.0417

>  <chi1_C>
8.20791

>  <FCharge>
0

>  <VAdjEq>
0.358235

>  <VAdjMa>
6.20945

>  <zagreb>
180

>  <balabanJ>
1.1637

>  <PEOE_PC+>
3.04221

>  <PEOE_PC->
-3.04221

>  <PEOE_RPC+>
0.097002

>  <PEOE_RPC->
0.138989

>  <PEOE_VSA+0>
73.9323

>  <PEOE_VSA+1>
79.3628

>  <PEOE_VSA+2>
13.2862

>  <PEOE_VSA+3>
8.61901

>  <PEOE_VSA+4>
22.9959

>  <PEOE_VSA+5>
47.3071

>  <PEOE_VSA+6>
0

>  <PEOE_VSA-0>
49.0196

>  <PEOE_VSA-1>
36.7647

>  <PEOE_VSA-2>
18.8421

>  <PEOE_VSA-3>
0

>  <PEOE_VSA-4>
11.9086

>  <PEOE_VSA-5>
40.7008

>  <PEOE_VSA-6>
2.64065

>  <PEOE_VSA_FHYD>
0.690283

>  <PEOE_VSA_FNEG>
0.394387

>  <PEOE_VSA_FPNEG>
0.136292

>  <PEOE_VSA_FPOL>
0.309717

>  <PEOE_VSA_FPOS>
0.605613

>  <PEOE_VSA_FPPOS>
0.173425

>  <PEOE_VSA_HYD>
279.827

>  <PEOE_VSA_NEG>
159.876

>  <PEOE_VSA_PNEG>
55.25

>  <PEOE_VSA_POL>
125.553

>  <PEOE_VSA_POS>
245.503

>  <PEOE_VSA_PPOS>
70.303

>  <PC+>
5.765

>  <PC->
-5.766

>  <Q_PC+>
5.765

>  <Q_PC->
-5.766

>  <Q_RPC+>
0.11379

>  <Q_RPC->
0.114464

>  <Q_VSA_FHYD>
0.480774

>  <Q_VSA_FNEG>
0.457333

>  <Q_VSA_FPNEG>
0.194367

>  <Q_VSA_FPOL>
0.519226

>  <Q_VSA_FPOS>
0.542667

>  <Q_VSA_FPPOS>
0.324859

>  <Q_VSA_HYD>
194.896

>  <Q_VSA_NEG>
185.394

>  <Q_VSA_PNEG>
78.7925

>  <Q_VSA_POL>
210.484

>  <Q_VSA_POS>
219.986

>  <Q_VSA_PPOS>
131.691

>  <RPC+>
0.11379

>  <RPC->
0.114464

>  <lip_acc>
9

>  <lip_don>
1

>  <lip_druglike>
1

>  <lip_violation>
0

>  <opr_brigid>
27

>  <opr_leadlike>
0

>  <opr_nring>
5

>  <opr_nrot>
6

>  <opr_violation>
2

>  <E>
103.116

>  <E_ang>
10.0143

>  <E_ele>
35.5044

>  <E_nb>
84.3107

>  <E_oop>
0.0296623

>  <E_sol>
-19.5562

>  <E_stb>
0.261576

>  <E_str>
6.70955

>  <E_strain>
0.00541465

>  <E_tor>
1.79013

>  <E_vdw>
48.8063

>  <E_rele>
0

>  <E_rnb>
-4.26326e-014

>  <E_rsol>
-4.26326e-014

>  <E_rvdw>
0

>  <Kier1>
24.6837

>  <Kier2>
10.9477

>  <Kier3>
5.12

>  <KierA1>
16.8041

>  <KierA2>
7.3557

>  <KierA3>
3.40729

>  <KierFlex>
3.74563

>  <logS>
-6.2916

>  <MNDO_dipole>
4.07327

>  <MNDO_E>
-138278

>  <MNDO_Eele>
-1.04272e+006

>  <MNDO_HF>
-62.1787

>  <MNDO_HOMO>
-9.11285

>  <MNDO_IP>
9.11285

>  <MNDO_LUMO>
-1.32945

>  <apol>
61.7473

>  <bpol>
31.6107

>  <mr>
11.8039

>  <dipole>
1.68132

>  <dipoleX>
1.18495

>  <dipoleY>
-1.13238

>  <dipoleZ>
0.374726

>  <pmi>
12734.4

>  <pmiX>
8933.58

>  <pmiY>
3025.18

>  <pmiZ>
775.632

>  <rgyr>
5.33493

>  <a_acc>
5

>  <a_acid>
0

>  <a_base>
0

>  <a_don>
1

>  <a_hyd>
19

>  <vsa_acc>
59.5428

>  <vsa_acid>
0

>  <vsa_base>
0

>  <vsa_don>
5.68258

>  <vsa_hyd>
248.62

>  <vsa_other>
76.3604

>  <vsa_pol>
65.2254

>  <PM3_dipole>
6.29495

>  <PM3_E>
-125120

>  <PM3_Eele>
-1.03368e+006

>  <PM3_HF>
-55.1999

>  <PM3_HOMO>
-9.09059

>  <PM3_IP>
9.09059

>  <PM3_LUMO>
-1.41526

>  <SlogP>
2.5243

>  <SlogP_VSA0>
0

>  <SlogP_VSA1>
55.7798

>  <SlogP_VSA2>
49.7688

>  <SlogP_VSA3>
73.7583

>  <SlogP_VSA4>
54.0956

>  <SlogP_VSA5>
9.50735

>  <SlogP_VSA6>
0

>  <SlogP_VSA7>
173.117

>  <SlogP_VSA8>
0

>  <SlogP_VSA9>
14.9601

>  <SMR>
11.4805

>  <SMR_VSA0>
81.094

>  <SMR_VSA1>
54.5348

>  <SMR_VSA2>
25.9065

>  <SMR_VSA3>
6.37115

>  <SMR_VSA4>
12.9227

>  <SMR_VSA5>
160.194

>  <SMR_VSA6>
89.9635

>  <SMR_VSA7>
0

>  <ASA>
695.091

>  <ASA+>
298.854

>  <ASA->
289.881

>  <ASA_H>
453.297

>  <ASA_P>
241.795

>  <CASA+>
1722.89

>  <CASA->
1671.45

>  <DASA>
8.97328

>  <DCASA>
51.4411

>  <FASA+>
0.429949

>  <FASA->
0.41704

>  <FASA_H>
0.65214

>  <FASA_P>
0.34786

>  <FCASA+>
2.47866

>  <FCASA->
2.40465

>  <VSA>
426.76

>  <TPSA>
112.4

>  <density>
0.809821

>  <vdw_area>
405.38

>  <vdw_vol>
552.5

>  <vsurf_A>
4.11349

>  <vsurf_CP>
0.0769538

>  <vsurf_CW1>
2.70937

>  <vsurf_CW2>
2.28548

>  <vsurf_CW3>
1.5983

>  <vsurf_CW4>
0.772055

>  <vsurf_CW5>
0.362943

>  <vsurf_CW6>
0.12336

>  <vsurf_CW7>
0.00752287

>  <vsurf_CW8>
0

>  <vsurf_D1>
928.5

>  <vsurf_D2>
547.125

>  <vsurf_D3>
407.125

>  <vsurf_D4>
339.125

>  <vsurf_D5>
281.375

>  <vsurf_D6>
226.875

>  <vsurf_D7>
142.75

>  <vsurf_D8>
86.5

>  <vsurf_DD12>
5.02494

>  <vsurf_DD13>
0.5

>  <vsurf_DD23>
5.24404

>  <vsurf_DW12>
0.5

>  <vsurf_DW13>
11.9269

>  <vsurf_DW23>
12.083

>  <vsurf_EDmin1>
-2.6856

>  <vsurf_EDmin2>
-2.68422

>  <vsurf_EDmin3>
-2.66957

>  <vsurf_EWmin1>
-5.67516

>  <vsurf_EWmin2>
-5.59524

>  <vsurf_EWmin3>
-5.28953

>  <vsurf_G>
1.38792

>  <vsurf_HB1>
435.75

>  <vsurf_HB2>
543.625

>  <vsurf_HB3>
460.375

>  <vsurf_HB4>
186.625

>  <vsurf_HB5>
70.25

>  <vsurf_HB6>
19.625

>  <vsurf_HB7>
1.625

>  <vsurf_HB8>
0

>  <vsurf_HL1>
0.18299

>  <vsurf_HL2>
0.0604497

>  <vsurf_ID1>
1.30551

>  <vsurf_ID2>
1.15219

>  <vsurf_ID3>
1.35155

>  <vsurf_ID4>
1.74536

>  <vsurf_ID5>
2.12593

>  <vsurf_ID6>
2.25197

>  <vsurf_ID7>
0.864098

>  <vsurf_ID8>
1.23895

>  <vsurf_IW1>
0.664889

>  <vsurf_IW2>
1.47807

>  <vsurf_IW3>
2.01116

>  <vsurf_IW4>
2.3513

>  <vsurf_IW5>
2.97669

>  <vsurf_IW6>
3.42641

>  <vsurf_IW7>
2.63608

>  <vsurf_IW8>
0

>  <vsurf_R>
1.44622

>  <vsurf_S>
632.425

>  <vsurf_V>
914.625

>  <vsurf_W1>
1632.75

>  <vsurf_W2>
1038.88

>  <vsurf_W3>
551.75

>  <vsurf_W4>
198.75

>  <vsurf_W5>
74.5

>  <vsurf_W6>
20.5

>  <vsurf_W7>
1.625

>  <vsurf_W8>
0

>  <vsurf_Wp1>
1197

>  <vsurf_Wp2>
495.25

>  <vsurf_Wp3>
91.375

>  <vsurf_Wp4>
12.125

>  <vsurf_Wp5>
4.25

>  <vsurf_Wp6>
0.875

>  <vsurf_Wp7>
0

>  <vsurf_Wp8>
0

>  <dens>
1.13093

>  <glob>
0.0477181

>  <std_dim1>
5.11485

>  <std_dim2>
1.68061

>  <std_dim3>
1.11731

>  <vol>
395.625

>  <logP(o/w)>
1.96

$$$$
D14.cdx
  MOE2008           3D

 52 56  0  0  0  0  0  0  0  0999 V2000
   -4.7760    2.3270    0.3250 C   0  0  0  0  0  0  0  0  0  0  0  0
   -5.6590    2.9590    0.2950 H   0  0  0  0  0  0  0  0  0  0  0  0
   -4.7660    1.1680    1.0940 C   0  0  0  0  0  0  0  0  0  0  0  0
   -5.6560    0.9060    1.6640 H   0  0  0  0  0  0  0  0  0  0  0  0
   -3.6390    0.3320    1.1410 C   0  0  0  0  0  0  0  0  0  0  0  0
   -2.5050    0.7340    0.4020 C   0  0  0  0  0  0  0  0  0  0  0  0
   -2.4840    1.8950   -0.3850 C   0  0  0  0  0  0  0  0  0  0  0  0
   -3.6510    2.6890   -0.4170 C   0  0  0  0  0  0  0  0  0  0  0  0
   -1.2490    0.1740    0.3120 N   0  0  0  0  0  0  0  0  0  0  0  0
   -0.9470   -0.6520    0.8090 H   0  0  0  0  0  0  0  0  0  0  0  0
   -0.4620    0.8980   -0.5410 C   0  0  0  0  0  0  0  0  0  0  0  0
    0.5540    0.5790   -0.7380 H   0  0  0  0  0  0  0  0  0  0  0  0
   -1.1850    1.9860   -0.9950 C   0  0  0  0  0  0  0  0  0  0  0  0
   -0.6670    3.0110   -1.8980 C   0  0  0  0  0  0  0  0  0  0  0  0
    0.7730    2.9370   -2.3680 C   0  0  0  0  0  0  0  0  0  0  0  0
    1.7200    3.6190   -1.6100 N   0  0  0  0  0  0  0  0  0  0  0  0
    3.1310    3.5830   -1.9960 C   0  0  0  0  0  0  0  0  0  0  0  0
    3.2840    2.9450   -2.8720 H   0  0  0  0  0  0  0  0  0  0  0  0
    3.4120    4.6060   -2.2740 H   0  0  0  0  0  0  0  0  0  0  0  0
    4.0070    3.0950   -0.8330 C   0  0  0  0  0  0  0  0  0  0  0  0
    5.0560    3.2000   -1.1180 H   0  0  0  0  0  0  0  0  0  0  0  0
    3.8100    2.0350   -0.6340 H   0  0  0  0  0  0  0  0  0  0  0  0
    3.7090    3.8210    0.4150 N   0  0  0  0  0  0  0  0  0  0  0  0
    2.2860    3.9020    0.7700 C   0  0  0  0  0  0  0  0  0  0  0  0
    1.9760    2.8870    1.0460 H   0  0  0  0  0  0  0  0  0  0  0  0
    2.1310    4.5420    1.6450 H   0  0  0  0  0  0  0  0  0  0  0  0
    1.4370    4.4050   -0.4020 C   0  0  0  0  0  0  0  0  0  0  0  0
    1.6900    5.4470   -0.6330 H   0  0  0  0  0  0  0  0  0  0  0  0
    0.3790    4.3740   -0.1340 H   0  0  0  0  0  0  0  0  0  0  0  0
    4.6480    4.4140    1.2560 C   0  0  0  0  0  0  0  0  0  0  0  0
    6.0850    4.1540    1.0180 C   0  0  0  0  0  0  0  0  0  0  0  0
   -1.3220    3.9660   -2.3010 O   0  0  0  0  0  0  0  0  0  0  0  0
    1.0090    2.2680   -3.3690 O   0  0  0  0  0  0  0  0  0  0  0  0
    4.3650    5.1430    2.2020 O   0  0  0  0  0  0  0  0  0  0  0  0
   -3.7200    3.8150   -1.1400 F   0  0  0  0  0  0  0  0  0  0  0  0
    6.5900    2.8520    1.1000 C   0  0  0  0  0  0  0  0  0  0  0  0
    5.9330    2.0150    1.3220 H   0  0  0  0  0  0  0  0  0  0  0  0
    7.9520    2.6300    0.9000 C   0  0  0  0  0  0  0  0  0  0  0  0
    8.3540    1.6220    0.9560 H   0  0  0  0  0  0  0  0  0  0  0  0
    8.8030    3.7060    0.6370 C   0  0  0  0  0  0  0  0  0  0  0  0
    9.8660    3.5310    0.4860 H   0  0  0  0  0  0  0  0  0  0  0  0
    8.2990    5.0070    0.5810 C   0  0  0  0  0  0  0  0  0  0  0  0
    8.9690    5.8410    0.3890 H   0  0  0  0  0  0  0  0  0  0  0  0
    6.9370    5.2360    0.7780 C   0  0  0  0  0  0  0  0  0  0  0  0
    6.5440    6.2490    0.7450 H   0  0  0  0  0  0  0  0  0  0  0  0
   -3.6740   -0.8840    1.9380 C   0  0  0  0  0  0  0  0  0  0  0  0
   -4.0770   -1.0090    3.1880 N   0  0  0  0  0  0  0  0  0  0  0  0
   -3.9580   -2.3320    3.5500 N   0  0  0  0  0  0  0  0  0  0  0  0
   -3.5230   -2.9910    2.5040 C   0  0  0  0  0  0  0  0  0  0  0  0
   -3.3350   -4.0540    2.4440 H   0  0  0  0  0  0  0  0  0  0  0  0
   -3.3450   -2.1300    1.4660 N   0  0  0  0  0  0  0  0  0  0  0  0
   -3.0400   -2.3590    0.5310 H   0  0  0  0  0  0  0  0  0  0  0  0
  1  2  1  0  0  0  0
  1  3  1  0  0  0  0
  1  8  2  0  0  0  0
  3  4  1  0  0  0  0
  3  5  2  0  0  0  0
  5  6  1  0  0  0  0
  5 46  1  0  0  0  0
  6  7  2  0  0  0  0
  6  9  1  0  0  0  0
  7  8  1  0  0  0  0
  7 13  1  0  0  0  0
  8 35  1  0  0  0  0
  9 10  1  0  0  0  0
  9 11  1  0  0  0  0
 11 12  1  0  0  0  0
 11 13  2  0  0  0  0
 13 14  1  0  0  0  0
 14 15  1  0  0  0  0
 14 32  2  0  0  0  0
 15 16  1  0  0  0  0
 15 33  2  0  0  0  0
 16 17  1  0  0  0  0
 16 27  1  0  0  0  0
 17 18  1  0  0  0  0
 17 19  1  0  0  0  0
 17 20  1  0  0  0  0
 20 21  1  0  0  0  0
 20 22  1  0  0  0  0
 20 23  1  0  0  0  0
 23 24  1  0  0  0  0
 23 30  1  0  0  0  0
 24 25  1  0  0  0  0
 24 26  1  0  0  0  0
 24 27  1  0  0  0  0
 27 28  1  0  0  0  0
 27 29  1  0  0  0  0
 30 31  1  0  0  0  0
 30 34  2  0  0  0  0
 31 36  1  0  0  0  0
 31 44  2  0  0  0  0
 36 37  1  0  0  0  0
 36 38  2  0  0  0  0
 38 39  1  0  0  0  0
 38 40  1  0  0  0  0
 40 41  1  0  0  0  0
 40 42  2  0  0  0  0
 42 43  1  0  0  0  0
 42 44  1  0  0  0  0
 44 45  1  0  0  0  0
 46 47  2  0  0  0  0
 46 51  1  0  0  0  0
 47 48  1  0  0  0  0
 48 49  2  0  0  0  0
 49 50  1  0  0  0  0
 49 51  1  0  0  0  0
 51 52  1  0  0  0  0
M  END
>  <Activity>
10.5228

>  <AM1_dipole>
6.78212

>  <AM1_E>
-135828

>  <AM1_Eele>
-1.05749e+006

>  <AM1_HF>
37.1704

>  <AM1_HOMO>
-9.04105

>  <AM1_IP>
9.04105

>  <AM1_LUMO>
-1.01866

>  <diameter>
17

>  <petitjean>
0.470588

>  <petitjeanSC>
0.888889

>  <radius>
9

>  <VDistEq>
3.84292

>  <VDistMa>
9.77179

>  <weinerPath>
3443

>  <weinerPol>
56

>  <BCUT_PEOE_0>
-2.71188

>  <BCUT_PEOE_1>
-0.638342

>  <BCUT_PEOE_2>
0.698844

>  <BCUT_PEOE_3>
2.6503

>  <BCUT_SLOGP_0>
-2.86001

>  <BCUT_SLOGP_1>
-0.540386

>  <BCUT_SLOGP_2>
0.801332

>  <BCUT_SLOGP_3>
2.50356

>  <BCUT_SMR_0>
-2.43203

>  <BCUT_SMR_1>
-0.428623

>  <BCUT_SMR_2>
0.854311

>  <BCUT_SMR_3>
2.92026

>  <GCUT_PEOE_0>
-0.858252

>  <GCUT_PEOE_1>
-0.403743

>  <GCUT_PEOE_2>
0.080099

>  <GCUT_PEOE_3>
2.70115

>  <GCUT_SLOGP_0>
-0.976494

>  <GCUT_SLOGP_1>
-0.350393

>  <GCUT_SLOGP_2>
0.185434

>  <GCUT_SLOGP_3>
2.69647

>  <GCUT_SMR_0>
-0.508917

>  <GCUT_SMR_1>
-0.216057

>  <GCUT_SMR_2>
0.233108

>  <GCUT_SMR_3>
2.97526

>  <a_aro>
20

>  <a_count>
52

>  <a_IC>
91.4057

>  <a_ICM>
1.7578

>  <a_nH>
19

>  <b_1rotN>
6

>  <b_1rotR>
0.162162

>  <b_ar>
21

>  <b_count>
56

>  <b_double>
3

>  <b_rotN>
6

>  <b_rotR>
0.162162

>  <b_single>
32

>  <b_triple>
0

>  <chi0v>
17.4161

>  <chi0v_C>
13.0246

>  <chi1v>
10.3827

>  <chi1v_C>
6.11004

>  <chiral>
0

>  <chiral_u>
0

>  <nmol>
1

>  <reactive>
0

>  <rings>
5

>  <Weight>
446.442

>  <a_heavy>
33

>  <a_nB>
0

>  <a_nBr>
0

>  <a_nC>
23

>  <a_nCl>
0

>  <a_nF>
1

>  <a_nI>
0

>  <a_nN>
6

>  <a_nO>
3

>  <a_nP>
0

>  <a_nS>
0

>  <b_heavy>
37

>  <chi0>
22.949

>  <chi0_C>
14.9659

>  <chi1>
16.0417

>  <chi1_C>
8.20791

>  <FCharge>
0

>  <VAdjEq>
0.358235

>  <VAdjMa>
6.20945

>  <zagreb>
180

>  <balabanJ>
1.1637

>  <PEOE_PC+>
2.99293

>  <PEOE_PC->
-2.99293

>  <PEOE_RPC+>
0.0985991

>  <PEOE_RPC->
0.120058

>  <PEOE_VSA+0>
76.1408

>  <PEOE_VSA+1>
77.1543

>  <PEOE_VSA+2>
34.5232

>  <PEOE_VSA+3>
28.4286

>  <PEOE_VSA+4>
0

>  <PEOE_VSA+5>
34.3576

>  <PEOE_VSA+6>
0

>  <PEOE_VSA-0>
49.0196

>  <PEOE_VSA-1>
36.7647

>  <PEOE_VSA-2>
18.8421

>  <PEOE_VSA-3>
0

>  <PEOE_VSA-4>
11.9086

>  <PEOE_VSA-5>
40.7008

>  <PEOE_VSA-6>
0.273782

>  <PEOE_VSA_FHYD>
0.786234

>  <PEOE_VSA_FNEG>
0.385945

>  <PEOE_VSA_FPNEG>
0.129579

>  <PEOE_VSA_FPOL>
0.213766

>  <PEOE_VSA_FPOS>
0.614055

>  <PEOE_VSA_FPPOS>
0.0841862

>  <PEOE_VSA_HYD>
320.873

>  <PEOE_VSA_NEG>
157.51

>  <PEOE_VSA_PNEG>
52.8832

>  <PEOE_VSA_POL>
87.2408

>  <PEOE_VSA_POS>
250.604

>  <PEOE_VSA_PPOS>
34.3576

>  <PC+>
5.486

>  <PC->
-5.486

>  <Q_PC+>
5.486

>  <Q_PC->
-5.486

>  <Q_RPC+>
0.119577

>  <Q_RPC->
0.120306

>  <Q_VSA_FHYD>
0.557345

>  <Q_VSA_FNEG>
0.448134

>  <Q_VSA_FPNEG>
0.18693

>  <Q_VSA_FPOL>
0.442655

>  <Q_VSA_FPOS>
0.551866

>  <Q_VSA_FPPOS>
0.255725

>  <Q_VSA_HYD>
227.46

>  <Q_VSA_NEG>
182.89

>  <Q_VSA_PNEG>
76.2888

>  <Q_VSA_POL>
180.654

>  <Q_VSA_POS>
225.224

>  <Q_VSA_PPOS>
104.365

>  <RPC+>
0.119577

>  <RPC->
0.120306

>  <lip_acc>
9

>  <lip_don>
2

>  <lip_druglike>
1

>  <lip_violation>
0

>  <opr_brigid>
27

>  <opr_leadlike>
0

>  <opr_nring>
5

>  <opr_nrot>
6

>  <opr_violation>
2

>  <E>
99.9697

>  <E_ang>
8.79716

>  <E_ele>
31.707

>  <E_nb>
77.8495

>  <E_oop>
0.0697087

>  <E_sol>
-32.6118

>  <E_stb>
0.243849

>  <E_str>
6.69229

>  <E_strain>
0.00612688

>  <E_tor>
6.31724

>  <E_vdw>
46.1425

>  <E_rele>
0

>  <E_rnb>
-8.52651e-014

>  <E_rsol>
-8.52651e-014

>  <E_rvdw>
0

>  <Kier1>
24.6837

>  <Kier2>
10.9477

>  <Kier3>
5.12

>  <KierA1>
16.5045

>  <KierA2>
7.21981

>  <KierA3>
3.34273

>  <KierFlex>
3.61089

>  <logS>
-5.60873

>  <MNDO_dipole>
5.07282

>  <MNDO_E>
-135957

>  <MNDO_Eele>
-1.04809e+006

>  <MNDO_HF>
-20.2704

>  <MNDO_HOMO>
-9.12745

>  <MNDO_IP>
9.12745

>  <MNDO_LUMO>
-1.02933

>  <apol>
62.7121

>  <bpol>
31.4479

>  <mr>
11.9194

>  <dipole>
2.11405

>  <dipoleX>
1.25394

>  <dipoleY>
-1.53479

>  <dipoleZ>
-0.735695

>  <pmi>
11262.9

>  <pmiX>
7852.15

>  <pmiY>
2215.12

>  <pmiZ>
1195.67

>  <rgyr>
5.02277

>  <a_acc>
6

>  <a_acid>
0

>  <a_base>
0

>  <a_don>
4

>  <a_hyd>
19

>  <vsa_acc>
40.7008

>  <vsa_acid>
0

>  <vsa_base>
0

>  <vsa_don>
5.68258

>  <vsa_hyd>
248.62

>  <vsa_other>
70.3387

>  <vsa_pol>
70.908

>  <PM3_dipole>
4.9643

>  <PM3_E>
-122460

>  <PM3_Eele>
-1.04684e+006

>  <PM3_HF>
-24.4127

>  <PM3_HOMO>
-8.84883

>  <PM3_IP>
8.84883

>  <PM3_LUMO>
-1.24288

>  <SlogP>
2.2594

>  <SlogP_VSA0>
0

>  <SlogP_VSA1>
55.7798

>  <SlogP_VSA2>
66.5543

>  <SlogP_VSA3>
73.7583

>  <SlogP_VSA4>
54.0956

>  <SlogP_VSA5>
0

>  <SlogP_VSA6>
0

>  <SlogP_VSA7>
167.733

>  <SlogP_VSA8>
0

>  <SlogP_VSA9>
14.9601

>  <SMR>
11.6889

>  <SMR_VSA0>
71.5866

>  <SMR_VSA1>
54.5348

>  <SMR_VSA2>
42.6921

>  <SMR_VSA3>
6.37115

>  <SMR_VSA4>
10.2306

>  <SMR_VSA5>
157.502

>  <SMR_VSA6>
89.9635

>  <SMR_VSA7>
0

>  <ASA>
694.437

>  <ASA+>
307.406

>  <ASA->
287.11

>  <ASA_H>
479.548

>  <ASA_P>
214.89

>  <CASA+>
1686.43

>  <CASA->
1575.08

>  <DASA>
20.2959

>  <DCASA>
111.343

>  <FASA+>
0.442669

>  <FASA->
0.413443

>  <FASA_H>
0.690556

>  <FASA_P>
0.309444

>  <FCASA+>
2.42848

>  <FCASA->
2.26815

>  <VSA>
437.686

>  <TPSA>
115.05

>  <density>
0.799896

>  <vdw_area>
408.114

>  <vdw_vol>
558.125

>  <vsurf_A>
3.41912

>  <vsurf_CP>
0.0699785

>  <vsurf_CW1>
2.71255

>  <vsurf_CW2>
2.28405

>  <vsurf_CW3>
1.61127

>  <vsurf_CW4>
0.857345

>  <vsurf_CW5>
0.399985

>  <vsurf_CW6>
0.123536

>  <vsurf_CW7>
0.0052086

>  <vsurf_CW8>
0

>  <vsurf_D1>
870.375

>  <vsurf_D2>
513.375

>  <vsurf_D3>
383.875

>  <vsurf_D4>
323.375

>  <vsurf_D5>
273.75

>  <vsurf_D6>
219.5

>  <vsurf_D7>
131.375

>  <vsurf_D8>
73.375

>  <vsurf_DD12>
1.22474

>  <vsurf_DD13>
0.5

>  <vsurf_DD23>
0.866025

>  <vsurf_DW12>
0.5

>  <vsurf_DW13>
0.5

>  <vsurf_DW23>
1

>  <vsurf_EDmin1>
-2.8436

>  <vsurf_EDmin2>
-2.83221

>  <vsurf_EDmin3>
-2.81652

>  <vsurf_EWmin1>
-5.45466

>  <vsurf_EWmin2>
-5.32985

>  <vsurf_EWmin3>
-5.24055

>  <vsurf_G>
1.3858

>  <vsurf_HB1>
437.75

>  <vsurf_HB2>
541.875

>  <vsurf_HB3>
458.375

>  <vsurf_HB4>
189

>  <vsurf_HB5>
64.125

>  <vsurf_HB6>
14.875

>  <vsurf_HB7>
1.125

>  <vsurf_HB8>
0

>  <vsurf_HL1>
0.210029

>  <vsurf_HL2>
0.0653266

>  <vsurf_ID1>
1.38004

>  <vsurf_ID2>
1.31454

>  <vsurf_ID3>
1.43761

>  <vsurf_ID4>
1.72609

>  <vsurf_ID5>
1.99269

>  <vsurf_ID6>
2.09136

>  <vsurf_ID7>
0.984342

>  <vsurf_ID8>
0.830173

>  <vsurf_IW1>
0.670264

>  <vsurf_IW2>
1.23309

>  <vsurf_IW3>
1.6386

>  <vsurf_IW4>
1.95207

>  <vsurf_IW5>
2.29288

>  <vsurf_IW6>
3.0409

>  <vsurf_IW7>
2.74065

>  <vsurf_IW8>
0

>  <vsurf_R>
1.44955

>  <vsurf_S>
632.437

>  <vsurf_V>
916.75

>  <vsurf_W1>
1650.63

>  <vsurf_W2>
1074

>  <vsurf_W3>
592

>  <vsurf_W4>
225.875

>  <vsurf_W5>
80.625

>  <vsurf_W6>
21.125

>  <vsurf_W7>
1.625

>  <vsurf_W8>
0

>  <vsurf_Wp1>
1212.88

>  <vsurf_Wp2>
532.125

>  <vsurf_Wp3>
133.625

>  <vsurf_Wp4>
36.875

>  <vsurf_Wp5>
16.5

>  <vsurf_Wp6>
6.25

>  <vsurf_Wp7>
0.5

>  <vsurf_Wp8>
0

>  <dens>
1.12066

>  <glob>
0.0654012

>  <std_dim1>
4.6819

>  <std_dim2>
1.94827

>  <std_dim3>
1.19733

>  <vol>
398.375

>  <logP(o/w)>
1.897

$$$$
D14.cdx
  MOE2008           3D

 51 55  0  0  0  0  0  0  0  0999 V2000
   -7.8540   -3.2740   -0.3290 C   0  0  0  0  0  0  0  0  0  0  0  0
   -8.7320   -2.6530   -0.4820 H   0  0  0  0  0  0  0  0  0  0  0  0
   -7.9590   -4.4840    0.3540 C   0  0  0  0  0  0  0  0  0  0  0  0
   -8.9370   -4.7870    0.7260 H   0  0  0  0  0  0  0  0  0  0  0  0
   -6.8380   -5.3040    0.5600 C   0  0  0  0  0  0  0  0  0  0  0  0
   -5.6100   -4.8390    0.0450 C   0  0  0  0  0  0  0  0  0  0  0  0
   -5.4660   -3.6340   -0.6490 C   0  0  0  0  0  0  0  0  0  0  0  0
   -6.6210   -2.8460   -0.8300 C   0  0  0  0  0  0  0  0  0  0  0  0
   -4.3660   -5.4270    0.0960 N   0  0  0  0  0  0  0  0  0  0  0  0
   -4.1950   -6.3200    0.5490 H   0  0  0  0  0  0  0  0  0  0  0  0
   -3.4430   -4.6480   -0.5360 C   0  0  0  0  0  0  0  0  0  0  0  0
   -2.4110   -4.9690   -0.5940 H   0  0  0  0  0  0  0  0  0  0  0  0
   -4.0830   -3.5210   -1.0240 C   0  0  0  0  0  0  0  0  0  0  0  0
   -3.4230   -2.4580   -1.7740 C   0  0  0  0  0  0  0  0  0  0  0  0
   -1.9640   -2.6150   -2.1600 C   0  0  0  0  0  0  0  0  0  0  0  0
   -1.0280   -1.8640   -1.4540 N   0  0  0  0  0  0  0  0  0  0  0  0
    0.3910   -1.9680   -1.8070 C   0  0  0  0  0  0  0  0  0  0  0  0
    0.5570   -2.7710   -2.5310 H   0  0  0  0  0  0  0  0  0  0  0  0
    0.6650   -1.0230   -2.2900 H   0  0  0  0  0  0  0  0  0  0  0  0
    1.2640   -2.1950   -0.5680 C   0  0  0  0  0  0  0  0  0  0  0  0
    2.3200   -2.2020   -0.8450 H   0  0  0  0  0  0  0  0  0  0  0  0
    1.0400   -3.1750   -0.1300 H   0  0  0  0  0  0  0  0  0  0  0  0
    0.9680   -1.1960    0.4700 N   0  0  0  0  0  0  0  0  0  0  0  0
   -0.4450   -1.1230    0.8500 C   0  0  0  0  0  0  0  0  0  0  0  0
   -0.6930   -2.0750    1.3340 H   0  0  0  0  0  0  0  0  0  0  0  0
   -0.6210   -0.3250    1.5780 H   0  0  0  0  0  0  0  0  0  0  0  0
   -1.3440   -0.9110   -0.3770 C   0  0  0  0  0  0  0  0  0  0  0  0
   -1.1780    0.0910   -0.7920 H   0  0  0  0  0  0  0  0  0  0  0  0
   -2.3910   -0.9770   -0.0760 H   0  0  0  0  0  0  0  0  0  0  0  0
    1.8880   -0.3730    1.1100 C   0  0  0  0  0  0  0  0  0  0  0  0
    3.2880   -0.3770    0.6390 C   0  0  0  0  0  0  0  0  0  0  0  0
   -3.9770   -1.4200   -2.1220 O   0  0  0  0  0  0  0  0  0  0  0  0
   -1.7040   -3.4110   -3.0570 O   0  0  0  0  0  0  0  0  0  0  0  0
    1.6200    0.3660    2.0520 O   0  0  0  0  0  0  0  0  0  0  0  0
   -6.5840   -1.6760   -1.4830 F   0  0  0  0  0  0  0  0  0  0  0  0
    4.2810   -0.9010    1.4710 C   0  0  0  0  0  0  0  0  0  0  0  0
    4.0230   -1.3180    2.4410 H   0  0  0  0  0  0  0  0  0  0  0  0
    5.6090   -0.8830    1.0480 C   0  0  0  0  0  0  0  0  0  0  0  0
    6.3890   -1.2910    1.6850 H   0  0  0  0  0  0  0  0  0  0  0  0
    5.9390   -0.3320   -0.1930 C   0  0  0  0  0  0  0  0  0  0  0  0
    6.9760   -0.3150   -0.5190 H   0  0  0  0  0  0  0  0  0  0  0  0
    4.9440    0.2090   -1.0120 C   0  0  0  0  0  0  0  0  0  0  0  0
    5.2110    0.6480   -1.9700 H   0  0  0  0  0  0  0  0  0  0  0  0
    3.6130    0.1940   -0.5950 C   0  0  0  0  0  0  0  0  0  0  0  0
    2.8420    0.6300   -1.2250 H   0  0  0  0  0  0  0  0  0  0  0  0
   -6.9410   -6.5730    1.2620 C   0  0  0  0  0  0  0  0  0  0  0  0
   -8.1250   -7.0390    1.7790 N   0  0  0  0  0  0  0  0  0  0  0  0
   -7.8580   -8.2120    2.3360 N   0  0  0  0  0  0  0  0  0  0  0  0
   -6.5490   -8.3930    2.1310 N   0  0  0  0  0  0  0  0  0  0  0  0
   -6.0690   -9.2270    2.4570 H   0  0  0  0  0  0  0  0  0  0  0  0
   -5.9100   -7.4140    1.4740 N   0  0  0  0  0  0  0  0  0  0  0  0
  1  2  1  0  0  0  0
  1  3  1  0  0  0  0
  1  8  2  0  0  0  0
  3  4  1  0  0  0  0
  3  5  2  0  0  0  0
  5  6  1  0  0  0  0
  5 46  1  0  0  0  0
  6  7  2  0  0  0  0
  6  9  1  0  0  0  0
  7  8  1  0  0  0  0
  7 13  1  0  0  0  0
  8 35  1  0  0  0  0
  9 10  1  0  0  0  0
  9 11  1  0  0  0  0
 11 12  1  0  0  0  0
 11 13  2  0  0  0  0
 13 14  1  0  0  0  0
 14 15  1  0  0  0  0
 14 32  2  0  0  0  0
 15 16  1  0  0  0  0
 15 33  2  0  0  0  0
 16 17  1  0  0  0  0
 16 27  1  0  0  0  0
 17 18  1  0  0  0  0
 17 19  1  0  0  0  0
 17 20  1  0  0  0  0
 20 21  1  0  0  0  0
 20 22  1  0  0  0  0
 20 23  1  0  0  0  0
 23 24  1  0  0  0  0
 23 30  1  0  0  0  0
 24 25  1  0  0  0  0
 24 26  1  0  0  0  0
 24 27  1  0  0  0  0
 27 28  1  0  0  0  0
 27 29  1  0  0  0  0
 30 31  1  0  0  0  0
 30 34  2  0  0  0  0
 31 36  1  0  0  0  0
 31 44  2  0  0  0  0
 36 37  1  0  0  0  0
 36 38  2  0  0  0  0
 38 39  1  0  0  0  0
 38 40  1  0  0  0  0
 40 41  1  0  0  0  0
 40 42  2  0  0  0  0
 42 43  1  0  0  0  0
 42 44  1  0  0  0  0
 44 45  1  0  0  0  0
 46 47  1  0  0  0  0
 46 51  2  0  0  0  0
 47 48  2  0  0  0  0
 48 49  1  0  0  0  0
 49 50  1  0  0  0  0
 49 51  1  0  0  0  0
M  END
>  <Activity>
10.0969

>  <AM1_dipole>
6.84172

>  <AM1_E>
-137298

>  <AM1_Eele>
-1.05321e+006

>  <AM1_HF>
76.2443

>  <AM1_HOMO>
-8.87586

>  <AM1_IP>
8.87586

>  <AM1_LUMO>
-1.10245

>  <diameter>
17

>  <petitjean>
0.470588

>  <petitjeanSC>
0.888889

>  <radius>
9

>  <VDistEq>
3.84292

>  <VDistMa>
9.77179

>  <weinerPath>
3443

>  <weinerPol>
56

>  <BCUT_PEOE_0>
-2.71188

>  <BCUT_PEOE_1>
-0.640914

>  <BCUT_PEOE_2>
0.630034

>  <BCUT_PEOE_3>
2.6503

>  <BCUT_SLOGP_0>
-2.86001

>  <BCUT_SLOGP_1>
-0.548677

>  <BCUT_SLOGP_2>
0.766247

>  <BCUT_SLOGP_3>
2.50353

>  <BCUT_SMR_0>
-2.43203

>  <BCUT_SMR_1>
-0.446512

>  <BCUT_SMR_2>
0.824306

>  <BCUT_SMR_3>
2.92026

>  <GCUT_PEOE_0>
-0.857903

>  <GCUT_PEOE_1>
-0.421258

>  <GCUT_PEOE_2>
0.0773256

>  <GCUT_PEOE_3>
2.69259

>  <GCUT_SLOGP_0>
-0.976495

>  <GCUT_SLOGP_1>
-0.362672

>  <GCUT_SLOGP_2>
0.178393

>  <GCUT_SLOGP_3>
2.68045

>  <GCUT_SMR_0>
-0.508916

>  <GCUT_SMR_1>
-0.216532

>  <GCUT_SMR_2>
0.237449

>  <GCUT_SMR_3>
2.96472

>  <a_aro>
20

>  <a_count>
51

>  <a_IC>
91.7212

>  <a_ICM>
1.79845

>  <a_nH>
18

>  <b_1rotN>
6

>  <b_1rotR>
0.162162

>  <b_ar>
21

>  <b_count>
55

>  <b_double>
3

>  <b_rotN>
6

>  <b_rotR>
0.162162

>  <b_single>
31

>  <b_triple>
0

>  <chi0v>
17.286

>  <chi0v_C>
12.4472

>  <chi1v>
10.2566

>  <chi1v_C>
6.11004

>  <chiral>
0

>  <chiral_u>
0

>  <nmol>
1

>  <reactive>
0

>  <rings>
5

>  <Weight>
447.43

>  <a_heavy>
33

>  <a_nB>
0

>  <a_nBr>
0

>  <a_nC>
22

>  <a_nCl>
0

>  <a_nF>
1

>  <a_nI>
0

>  <a_nN>
7

>  <a_nO>
3

>  <a_nP>
0

>  <a_nS>
0

>  <b_heavy>
37

>  <chi0>
22.949

>  <chi0_C>
14.2588

>  <chi1>
16.0417

>  <chi1_C>
8.20791

>  <FCharge>
0

>  <VAdjEq>
0.358235

>  <VAdjMa>
6.20945

>  <zagreb>
180

>  <balabanJ>
1.16371

>  <PEOE_PC+>
2.86346

>  <PEOE_PC->
-2.86346

>  <PEOE_RPC+>
0.103058

>  <PEOE_RPC->
0.125486

>  <PEOE_VSA+0>
76.1408

>  <PEOE_VSA+1>
77.1543

>  <PEOE_VSA+2>
9.02085

>  <PEOE_VSA+3>
8.61901

>  <PEOE_VSA+4>
19.8096

>  <PEOE_VSA+5>
34.3576

>  <PEOE_VSA+6>
0

>  <PEOE_VSA-0>
62.1791

>  <PEOE_VSA-1>
36.7647

>  <PEOE_VSA-2>
18.8421

>  <PEOE_VSA-3>
7.61382

>  <PEOE_VSA-4>
11.9086

>  <PEOE_VSA-5>
40.7008

>  <PEOE_VSA-6>
0.136891

>  <PEOE_VSA_FHYD>
0.734869

>  <PEOE_VSA_FNEG>
0.441778

>  <PEOE_VSA_FPNEG>
0.130804

>  <PEOE_VSA_FPOL>
0.265131

>  <PEOE_VSA_FPOS>
0.558222

>  <PEOE_VSA_FPPOS>
0.134327

>  <PEOE_VSA_HYD>
296.335

>  <PEOE_VSA_NEG>
178.146

>  <PEOE_VSA_PNEG>
52.7463

>  <PEOE_VSA_POL>
106.913

>  <PEOE_VSA_POS>
225.102

>  <PEOE_VSA_PPOS>
54.1672

>  <PC+>
6.161

>  <PC->
-6.162

>  <Q_PC+>
6.161

>  <Q_PC->
-6.162

>  <Q_RPC+>
0.106476

>  <Q_RPC->
0.114735

>  <Q_VSA_FHYD>
0.472738

>  <Q_VSA_FNEG>
0.486175

>  <Q_VSA_FPNEG>
0.221819

>  <Q_VSA_FPOL>
0.527262

>  <Q_VSA_FPOS>
0.513825

>  <Q_VSA_FPPOS>
0.305443

>  <Q_VSA_HYD>
190.631

>  <Q_VSA_NEG>
196.049

>  <Q_VSA_PNEG>
89.4483

>  <Q_VSA_POL>
212.618

>  <Q_VSA_POS>
207.199

>  <Q_VSA_PPOS>
123.169

>  <RPC+>
0.106476

>  <RPC->
0.114735

>  <lip_acc>
10

>  <lip_don>
2

>  <lip_druglike>
1

>  <lip_violation>
0

>  <opr_brigid>
27

>  <opr_leadlike>
0

>  <opr_nring>
5

>  <opr_nrot>
6

>  <opr_violation>
2

>  <E>
103.118

>  <E_ang>
9.44034

>  <E_ele>
34.8686

>  <E_nb>
84.165

>  <E_oop>
0.0839736

>  <E_sol>
-28.9953

>  <E_stb>
0.403974

>  <E_str>
6.51574

>  <E_strain>
0.00659794

>  <E_tor>
2.5086

>  <E_vdw>
49.2964

>  <E_rele>
0

>  <E_rnb>
-5.68434e-014

>  <E_rsol>
-5.68434e-014

>  <E_rvdw>
0

>  <Kier1>
24.6837

>  <Kier2>
10.9477

>  <Kier3>
5.12

>  <KierA1>
16.4345

>  <KierA2>
7.18809

>  <KierA3>
3.32766

>  <KierFlex>
3.57978

>  <logS>
-4.96081

>  <MNDO_dipole>
6.52088

>  <MNDO_E>
-137447

>  <MNDO_Eele>
-1.04237e+006

>  <MNDO_HF>
-2.20067

>  <MNDO_HOMO>
-9.0338

>  <MNDO_IP>
9.0338

>  <MNDO_LUMO>
-0.97978

>  <apol>
61.3853

>  <bpol>
29.0347

>  <mr>
11.7317

>  <dipole>
1.81628

>  <dipoleX>
1.00303

>  <dipoleY>
-1.43873

>  <dipoleZ>
0.472081

>  <pmi>
12250.2

>  <pmiX>
8490.31

>  <pmiY>
2866.9

>  <pmiZ>
893.018

>  <rgyr>
5.2325

>  <a_acc>
7

>  <a_acid>
0

>  <a_base>
0

>  <a_don>
3

>  <a_hyd>
19

>  <vsa_acc>
63.2813

>  <vsa_acid>
0

>  <vsa_base>
0

>  <vsa_don>
5.68258

>  <vsa_hyd>
248.62

>  <vsa_other>
45.5481

>  <vsa_pol>
91.5444

>  <PM3_dipole>
8.03083

>  <PM3_E>
-123079

>  <PM3_Eele>
-1.03224e+006

>  <PM3_HF>
13.6786

>  <PM3_HOMO>
-8.88614

>  <PM3_IP>
8.88614

>  <PM3_LUMO>
-1.31372

>  <SlogP>
1.6544

>  <SlogP_VSA0>
0

>  <SlogP_VSA1>
72.3203

>  <SlogP_VSA2>
66.3092

>  <SlogP_VSA3>
73.7583

>  <SlogP_VSA4>
54.0956

>  <SlogP_VSA5>
0

>  <SlogP_VSA6>
0

>  <SlogP_VSA7>
150.947

>  <SlogP_VSA8>
0

>  <SlogP_VSA9>
14.9601

>  <SMR>
11.4684

>  <SMR_VSA0>
71.5866

>  <SMR_VSA1>
71.0752

>  <SMR_VSA2>
42.447

>  <SMR_VSA3>
6.37115

>  <SMR_VSA4>
10.2306

>  <SMR_VSA5>
140.717

>  <SMR_VSA6>
89.9635

>  <SMR_VSA7>
0

>  <ASA>
692.848

>  <ASA+>
279.661

>  <ASA->
309.833

>  <ASA_H>
424.962

>  <ASA_P>
267.886

>  <CASA+>
1722.99

>  <CASA->
1909.19

>  <DASA>
30.1716

>  <DCASA>
186.197

>  <FASA+>
0.40364

>  <FASA->
0.447187

>  <FASA_H>
0.613355

>  <FASA_P>
0.386645

>  <FCASA+>
2.48683

>  <FCASA->
2.75557

>  <VSA>
425.219

>  <TPSA>
127.94

>  <density>
0.817335

>  <vdw_area>
403.248

>  <vdw_vol>
547.426

>  <vsurf_A>
3.71971

>  <vsurf_CP>
0.0694727

>  <vsurf_CW1>
2.75158

>  <vsurf_CW2>
2.35413

>  <vsurf_CW3>
1.75058

>  <vsurf_CW4>
0.885449

>  <vsurf_CW5>
0.409342

>  <vsurf_CW6>
0.121919

>  <vsurf_CW7>
0.0164438

>  <vsurf_CW8>
0.00277102

>  <vsurf_D1>
907.375

>  <vsurf_D2>
535.25

>  <vsurf_D3>
398.5

>  <vsurf_D4>
323.25

>  <vsurf_D5>
275.5

>  <vsurf_D6>
220.625

>  <vsurf_D7>
139.875

>  <vsurf_D8>
86.75

>  <vsurf_DD12>
0.5

>  <vsurf_DD13>
0.707107

>  <vsurf_DD23>
0.5

>  <vsurf_DW12>
0.707107

>  <vsurf_DW13>
0.5

>  <vsurf_DW23>
0.5

>  <vsurf_EDmin1>
-2.8113

>  <vsurf_EDmin2>
-2.78396

>  <vsurf_EDmin3>
-2.74364

>  <vsurf_EWmin1>
-6.42787

>  <vsurf_EWmin2>
-6.32594

>  <vsurf_EWmin3>
-6.22177

>  <vsurf_G>
1.37308

>  <vsurf_HB1>
429.5

>  <vsurf_HB2>
540

>  <vsurf_HB3>
472.125

>  <vsurf_HB4>
197.875

>  <vsurf_HB5>
68.875

>  <vsurf_HB6>
19

>  <vsurf_HB7>
3.375

>  <vsurf_HB8>
0.5

>  <vsurf_HL1>
0.201066

>  <vsurf_HL2>
0.0661253

>  <vsurf_ID1>
1.23955

>  <vsurf_ID2>
1.14868

>  <vsurf_ID3>
1.33039

>  <vsurf_ID4>
1.7979

>  <vsurf_ID5>
2.2325

>  <vsurf_ID6>
2.3488

>  <vsurf_ID7>
0.92315

>  <vsurf_ID8>
1.48772

>  <vsurf_IW1>
0.864385

>  <vsurf_IW2>
1.65583

>  <vsurf_IW3>
2.17948

>  <vsurf_IW4>
2.37721

>  <vsurf_IW5>
2.70351

>  <vsurf_IW6>
2.23546

>  <vsurf_IW7>
3.27772

>  <vsurf_IW8>
5.23854

>  <vsurf_R>
1.45777

>  <vsurf_S>
622.181

>  <vsurf_V>
907

>  <vsurf_W1>
1681.75

>  <vsurf_W2>
1100.5

>  <vsurf_W3>
616.625

>  <vsurf_W4>
229.25

>  <vsurf_W5>
80.125

>  <vsurf_W6>
21.375

>  <vsurf_W7>
3.625

>  <vsurf_W8>
0.5

>  <vsurf_Wp1>
1252.25

>  <vsurf_Wp2>
560.5

>  <vsurf_Wp3>
144.5

>  <vsurf_Wp4>
31.375

>  <vsurf_Wp5>
11.25

>  <vsurf_Wp6>
2.375

>  <vsurf_Wp7>
0.25

>  <vsurf_Wp8>
0

>  <dens>
1.14579

>  <glob>
0.0509645

>  <std_dim1>
4.95955

>  <std_dim2>
1.75433

>  <std_dim3>
1.11963

>  <vol>
390.5

>  <logP(o/w)>
1.747

$$$$
D14.cdx
  MOE2008           3D

 58 63  0  0  0  0  0  0  0  0999 V2000
   -6.1800   -7.2280    0.8410 C   0  0  0  0  0  0  0  0  0  0  0  0
   -7.0260   -6.6380    1.1820 H   0  0  0  0  0  0  0  0  0  0  0  0
   -6.1860   -8.6120    0.9860 C   0  0  0  0  0  0  0  0  0  0  0  0
   -7.0520   -9.0860    1.4460 H   0  0  0  0  0  0  0  0  0  0  0  0
   -5.1070   -9.4040    0.5520 C   0  0  0  0  0  0  0  0  0  0  0  0
   -4.0190   -8.7210   -0.0360 C   0  0  0  0  0  0  0  0  0  0  0  0
   -3.9780   -7.3300   -0.1970 C   0  0  0  0  0  0  0  0  0  0  0  0
   -5.0890   -6.5850    0.2560 C   0  0  0  0  0  0  0  0  0  0  0  0
   -2.8400   -9.2130   -0.5520 N   0  0  0  0  0  0  0  0  0  0  0  0
   -2.6010  -10.1970   -0.5700 H   0  0  0  0  0  0  0  0  0  0  0  0
   -2.0590   -8.1970   -1.0250 C   0  0  0  0  0  0  0  0  0  0  0  0
   -1.0960   -8.4170   -1.4690 H   0  0  0  0  0  0  0  0  0  0  0  0
   -2.7270   -7.0030   -0.8280 C   0  0  0  0  0  0  0  0  0  0  0  0
   -2.2120   -5.6910   -1.2080 C   0  0  0  0  0  0  0  0  0  0  0  0
   -0.8530   -5.5770   -1.8770 C   0  0  0  0  0  0  0  0  0  0  0  0
    0.2370   -5.3020   -1.0520 N   0  0  0  0  0  0  0  0  0  0  0  0
    1.5740   -5.2280   -1.6410 C   0  0  0  0  0  0  0  0  0  0  0  0
    1.6160   -5.8260   -2.5580 H   0  0  0  0  0  0  0  0  0  0  0  0
    1.7370   -4.1810   -1.9220 H   0  0  0  0  0  0  0  0  0  0  0  0
    2.6610   -5.6870   -0.6630 C   0  0  0  0  0  0  0  0  0  0  0  0
    3.6480   -5.5710   -1.1230 H   0  0  0  0  0  0  0  0  0  0  0  0
    2.5150   -6.7470   -0.4260 H   0  0  0  0  0  0  0  0  0  0  0  0
    2.6160   -4.9550    0.6120 N   0  0  0  0  0  0  0  0  0  0  0  0
    1.3410   -4.3260    0.9670 C   0  0  0  0  0  0  0  0  0  0  0  0
    1.2520   -4.2450    2.0560 H   0  0  0  0  0  0  0  0  0  0  0  0
    1.3740   -3.3060    0.5640 H   0  0  0  0  0  0  0  0  0  0  0  0
    0.1320   -5.0740    0.3960 C   0  0  0  0  0  0  0  0  0  0  0  0
   -0.7850   -4.5240    0.6230 H   0  0  0  0  0  0  0  0  0  0  0  0
    0.0510   -6.0640    0.8610 H   0  0  0  0  0  0  0  0  0  0  0  0
    3.6970   -4.7950    1.4780 C   0  0  0  0  0  0  0  0  0  0  0  0
    4.9530   -5.5240    1.1920 C   0  0  0  0  0  0  0  0  0  0  0  0
   -2.8150   -4.6400   -1.0140 O   0  0  0  0  0  0  0  0  0  0  0  0
   -0.7990   -5.7500   -3.0890 O   0  0  0  0  0  0  0  0  0  0  0  0
    3.6810   -4.0720    2.4710 O   0  0  0  0  0  0  0  0  0  0  0  0
   -5.1370   -5.2510    0.1460 F   0  0  0  0  0  0  0  0  0  0  0  0
    4.9770   -6.9230    1.1790 C   0  0  0  0  0  0  0  0  0  0  0  0
    4.0750   -7.4960    1.3740 H   0  0  0  0  0  0  0  0  0  0  0  0
    6.1780   -7.5860    0.9290 C   0  0  0  0  0  0  0  0  0  0  0  0
    6.2080   -8.6730    0.9140 H   0  0  0  0  0  0  0  0  0  0  0  0
    7.3480   -6.8560    0.7090 C   0  0  0  0  0  0  0  0  0  0  0  0
    8.2830   -7.3750    0.5190 H   0  0  0  0  0  0  0  0  0  0  0  0
    7.3240   -5.4600    0.7470 C   0  0  0  0  0  0  0  0  0  0  0  0
    8.2400   -4.8970    0.5890 H   0  0  0  0  0  0  0  0  0  0  0  0
    6.1260   -4.7900    0.9960 C   0  0  0  0  0  0  0  0  0  0  0  0
    6.1090   -3.7030    1.0360 H   0  0  0  0  0  0  0  0  0  0  0  0
   -5.1520  -10.8530    0.7210 C   0  0  0  0  0  0  0  0  0  0  0  0
   -6.0990  -11.5990    1.2630 N   0  0  0  0  0  0  0  0  0  0  0  0
   -5.6120  -12.8770    1.1520 C   0  0  0  0  0  0  0  0  0  0  0  0
   -4.3710  -12.8550    0.5380 C   0  0  0  0  0  0  0  0  0  0  0  0
   -4.0650  -11.5570    0.2590 O   0  0  0  0  0  0  0  0  0  0  0  0
   -6.1550  -14.1080    1.5410 C   0  0  0  0  0  0  0  0  0  0  0  0
   -7.1240  -14.1590    2.0240 H   0  0  0  0  0  0  0  0  0  0  0  0
   -5.4060  -15.2670    1.2880 C   0  0  0  0  0  0  0  0  0  0  0  0
   -5.8070  -16.2350    1.5810 H   0  0  0  0  0  0  0  0  0  0  0  0
   -4.1530  -15.2000    0.6630 C   0  0  0  0  0  0  0  0  0  0  0  0
   -3.5990  -16.1190    0.4810 H   0  0  0  0  0  0  0  0  0  0  0  0
   -3.5990  -13.9770    0.2690 C   0  0  0  0  0  0  0  0  0  0  0  0
   -2.6330  -13.9080   -0.2150 H   0  0  0  0  0  0  0  0  0  0  0  0
  1  2  1  0  0  0  0
  1  3  1  0  0  0  0
  1  8  2  0  0  0  0
  3  4  1  0  0  0  0
  3  5  2  0  0  0  0
  5  6  1  0  0  0  0
  5 46  1  0  0  0  0
  6  7  2  0  0  0  0
  6  9  1  0  0  0  0
  7  8  1  0  0  0  0
  7 13  1  0  0  0  0
  8 35  1  0  0  0  0
  9 10  1  0  0  0  0
  9 11  1  0  0  0  0
 11 12  1  0  0  0  0
 11 13  2  0  0  0  0
 13 14  1  0  0  0  0
 14 15  1  0  0  0  0
 14 32  2  0  0  0  0
 15 16  1  0  0  0  0
 15 33  2  0  0  0  0
 16 17  1  0  0  0  0
 16 27  1  0  0  0  0
 17 18  1  0  0  0  0
 17 19  1  0  0  0  0
 17 20  1  0  0  0  0
 20 21  1  0  0  0  0
 20 22  1  0  0  0  0
 20 23  1  0  0  0  0
 23 24  1  0  0  0  0
 23 30  1  0  0  0  0
 24 25  1  0  0  0  0
 24 26  1  0  0  0  0
 24 27  1  0  0  0  0
 27 28  1  0  0  0  0
 27 29  1  0  0  0  0
 30 31  1  0  0  0  0
 30 34  2  0  0  0  0
 31 36  1  0  0  0  0
 31 44  2  0  0  0  0
 36 37  1  0  0  0  0
 36 38  2  0  0  0  0
 38 39  1  0  0  0  0
 38 40  1  0  0  0  0
 40 41  1  0  0  0  0
 40 42  2  0  0  0  0
 42 43  1  0  0  0  0
 42 44  1  0  0  0  0
 44 45  1  0  0  0  0
 46 47  2  0  0  0  0
 46 50  1  0  0  0  0
 47 48  1  0  0  0  0
 48 49  1  0  0  0  0
 48 51  2  0  0  0  0
 49 50  1  0  0  0  0
 49 57  2  0  0  0  0
 51 52  1  0  0  0  0
 51 53  1  0  0  0  0
 53 54  1  0  0  0  0
 53 55  2  0  0  0  0
 55 56  1  0  0  0  0
 55 57  1  0  0  0  0
 57 58  1  0  0  0  0
M  END
>  <Activity>
9.0555

>  <AM1_dipole>
6.69988

>  <AM1_E>
-149071

>  <AM1_Eele>
-1.21381e+006

>  <AM1_HF>
-3.01608

>  <AM1_HOMO>
-8.7955

>  <AM1_IP>
8.7955

>  <AM1_LUMO>
-1.23597

>  <diameter>
19

>  <petitjean>
0.473684

>  <petitjeanSC>
0.9

>  <radius>
10

>  <VDistEq>
3.98726

>  <VDistMa>
10.101

>  <weinerPath>
4739

>  <weinerPol>
65

>  <BCUT_PEOE_0>
-2.71188

>  <BCUT_PEOE_1>
-0.647623

>  <BCUT_PEOE_2>
0.620739

>  <BCUT_PEOE_3>
2.6503

>  <BCUT_SLOGP_0>
-2.86001

>  <BCUT_SLOGP_1>
-0.53808

>  <BCUT_SLOGP_2>
0.753237

>  <BCUT_SLOGP_3>
2.50362

>  <BCUT_SMR_0>
-2.43203

>  <BCUT_SMR_1>
-0.44904

>  <BCUT_SMR_2>
0.809922

>  <BCUT_SMR_3>
2.92026

>  <GCUT_PEOE_0>
-0.857992

>  <GCUT_PEOE_1>
-0.448033

>  <GCUT_PEOE_2>
0.0740707

>  <GCUT_PEOE_3>
2.7328

>  <GCUT_SLOGP_0>
-0.976491

>  <GCUT_SLOGP_1>
-0.308554

>  <GCUT_SLOGP_2>
0.164454

>  <GCUT_SLOGP_3>
2.7592

>  <GCUT_SMR_0>
-0.508917

>  <GCUT_SMR_1>
-0.216057

>  <GCUT_SMR_2>
0.199311

>  <GCUT_SMR_3>
3.01144

>  <a_aro>
24

>  <a_count>
58

>  <a_IC>
96.9183

>  <a_ICM>
1.67101

>  <a_nH>
21

>  <b_1rotN>
6

>  <b_1rotR>
0.142857

>  <b_ar>
26

>  <b_count>
63

>  <b_double>
3

>  <b_rotN>
6

>  <b_rotR>
0.142857

>  <b_single>
34

>  <b_triple>
0

>  <chi0v>
19.6092

>  <chi0v_C>
15.7566

>  <chi1v>
11.845

>  <chi1v_C>
7.93739

>  <chiral>
0

>  <chiral_u>
0

>  <nmol>
1

>  <reactive>
0

>  <rings>
6

>  <Weight>
496.498

>  <a_heavy>
37

>  <a_nB>
0

>  <a_nBr>
0

>  <a_nC>
28

>  <a_nCl>
0

>  <a_nF>
1

>  <a_nI>
0

>  <a_nN>
4

>  <a_nO>
4

>  <a_nP>
0

>  <a_nS>
0

>  <b_heavy>
42

>  <chi0>
25.5179

>  <chi0_C>
18.2419

>  <chi1>
18.008

>  <chi1_C>
10.8577

>  <FCharge>
0

>  <VAdjEq>
0.332815

>  <VAdjMa>
6.39232

>  <zagreb>
206

>  <balabanJ>
1.04721

>  <PEOE_PC+>
3.20781

>  <PEOE_PC->
-3.20781

>  <PEOE_RPC+>
0.0919944

>  <PEOE_RPC->
0.135672

>  <PEOE_VSA+0>
73.9323

>  <PEOE_VSA+1>
96.4243

>  <PEOE_VSA+2>
15.7204

>  <PEOE_VSA+3>
17.0775

>  <PEOE_VSA+4>
12.9495

>  <PEOE_VSA+5>
34.3576

>  <PEOE_VSA+6>
0

>  <PEOE_VSA-0>
73.5294

>  <PEOE_VSA-1>
61.2745

>  <PEOE_VSA-2>
0

>  <PEOE_VSA-3>
0

>  <PEOE_VSA-4>
17.5912

>  <PEOE_VSA-5>
40.7008

>  <PEOE_VSA-6>
2.64065

>  <PEOE_VSA_FHYD>
0.757418

>  <PEOE_VSA_FNEG>
0.438676

>  <PEOE_VSA_FPNEG>
0.13656

>  <PEOE_VSA_FPOL>
0.242582

>  <PEOE_VSA_FPOS>
0.561324

>  <PEOE_VSA_FPPOS>
0.106023

>  <PEOE_VSA_HYD>
337.959

>  <PEOE_VSA_NEG>
195.737

>  <PEOE_VSA_PNEG>
60.9326

>  <PEOE_VSA_POL>
108.24

>  <PEOE_VSA_POS>
250.462

>  <PEOE_VSA_PPOS>
47.3071

>  <PC+>
6.254

>  <PC->
-6.255

>  <Q_PC+>
6.254

>  <Q_PC->
-6.255

>  <Q_RPC+>
0.104893

>  <Q_RPC->
0.105516

>  <Q_VSA_FHYD>
0.594288

>  <Q_VSA_FNEG>
0.495864

>  <Q_VSA_FPNEG>
0.147094

>  <Q_VSA_FPOL>
0.405712

>  <Q_VSA_FPOS>
0.504136

>  <Q_VSA_FPPOS>
0.258618

>  <Q_VSA_HYD>
265.17

>  <Q_VSA_NEG>
221.254

>  <Q_VSA_PNEG>
65.633

>  <Q_VSA_POL>
181.028

>  <Q_VSA_POS>
224.945

>  <Q_VSA_PPOS>
115.395

>  <RPC+>
0.104893

>  <RPC->
0.105516

>  <lip_acc>
8

>  <lip_don>
1

>  <lip_druglike>
1

>  <lip_violation>
0

>  <opr_brigid>
32

>  <opr_leadlike>
0

>  <opr_nring>
6

>  <opr_nrot>
6

>  <opr_violation>
2

>  <E>
116.16

>  <E_ang>
8.54563

>  <E_ele>
34.9931

>  <E_nb>
95.549

>  <E_oop>
0.0457017

>  <E_sol>
-17.7343

>  <E_stb>
0.00344216

>  <E_str>
8.02692

>  <E_strain>
0.00776868

>  <E_tor>
3.98942

>  <E_vdw>
60.5558

>  <E_rele>
0

>  <E_rnb>
-5.68434e-014

>  <E_rsol>
-5.68434e-014

>  <E_rvdw>
0

>  <Kier1>
27.1837

>  <Kier2>
11.8517

>  <Kier3>
5.49822

>  <KierA1>
18.5082

>  <KierA2>
7.97596

>  <KierA3>
3.66923

>  <KierFlex>
3.98975

>  <logS>
-7.64024

>  <MNDO_dipole>
7.93284

>  <MNDO_E>
-149211

>  <MNDO_Eele>
-1.20646e+006

>  <MNDO_HF>
-22.7154

>  <MNDO_HOMO>
-8.94373

>  <MNDO_IP>
8.94373

>  <MNDO_LUMO>
-1.17366

>  <apol>
71.4477

>  <bpol>
34.8903

>  <mr>
13.5947

>  <dipole>
2.17553

>  <dipoleX>
0.902728

>  <dipoleY>
-1.97626

>  <dipoleZ>
-0.111347

>  <pmi>
15152.5

>  <pmiX>
9020.78

>  <pmiY>
5474.1

>  <pmiZ>
657.597

>  <rgyr>
5.52437

>  <a_acc>
4

>  <a_acid>
0

>  <a_base>
0

>  <a_don>
1

>  <a_hyd>
24

>  <vsa_acc>
46.3833

>  <vsa_acid>
0

>  <vsa_base>
0

>  <vsa_don>
5.68258

>  <vsa_hyd>
318.554

>  <vsa_other>
58.2694

>  <vsa_pol>
52.0659

>  <PM3_dipole>
7.37266

>  <PM3_E>
-136110

>  <PM3_Eele>
-1.18917e+006

>  <PM3_HF>
-50.9586

>  <PM3_HOMO>
-8.86334

>  <PM3_IP>
8.86334

>  <PM3_LUMO>
-1.26824

>  <SlogP>
4.2825

>  <SlogP_VSA0>
0

>  <SlogP_VSA1>
39.2393

>  <SlogP_VSA2>
49.7688

>  <SlogP_VSA3>
73.7583

>  <SlogP_VSA4>
54.0956

>  <SlogP_VSA5>
9.50735

>  <SlogP_VSA6>
0

>  <SlogP_VSA7>
231.192

>  <SlogP_VSA8>
0

>  <SlogP_VSA9>
14.9601

>  <SMR>
13.4516

>  <SMR_VSA0>
81.094

>  <SMR_VSA1>
37.9943

>  <SMR_VSA2>
25.9065

>  <SMR_VSA3>
6.37115

>  <SMR_VSA4>
19.903

>  <SMR_VSA5>
211.289

>  <SMR_VSA6>
89.9635

>  <SMR_VSA7>
0

>  <ASA>
771.062

>  <ASA+>
333.29

>  <ASA->
330.857

>  <ASA_H>
596.605

>  <ASA_P>
174.457

>  <CASA+>
2084.4

>  <CASA->
2069.51

>  <DASA>
2.43341

>  <DCASA>
14.8877

>  <FASA+>
0.432248

>  <FASA->
0.429092

>  <FASA_H>
0.773744

>  <FASA_P>
0.226256

>  <FCASA+>
2.70328

>  <FCASA->
2.68397

>  <VSA>
481.57

>  <TPSA>
99.51

>  <density>
0.782621

>  <vdw_area>
446.198

>  <vdw_vol>
634.404

>  <vsurf_A>
3.78031

>  <vsurf_CP>
0.112037

>  <vsurf_CW1>
2.61249

>  <vsurf_CW2>
2.09215

>  <vsurf_CW3>
1.36384

>  <vsurf_CW4>
0.604275

>  <vsurf_CW5>
0.26841

>  <vsurf_CW6>
0.0890321

>  <vsurf_CW7>
0.00520127

>  <vsurf_CW8>
0

>  <vsurf_D1>
1137

>  <vsurf_D2>
668

>  <vsurf_D3>
501.25

>  <vsurf_D4>
425.875

>  <vsurf_D5>
362.75

>  <vsurf_D6>
296

>  <vsurf_D7>
172.5

>  <vsurf_D8>
103.5

>  <vsurf_DD12>
3.20156

>  <vsurf_DD13>
3.3541

>  <vsurf_DD23>
0.707107

>  <vsurf_DW12>
0.707107

>  <vsurf_DW13>
10.0125

>  <vsurf_DW23>
9.60469

>  <vsurf_EDmin1>
-2.74706

>  <vsurf_EDmin2>
-2.63669

>  <vsurf_EDmin3>
-2.63325

>  <vsurf_EWmin1>
-5.36035

>  <vsurf_EWmin2>
-5.34574

>  <vsurf_EWmin3>
-5.28552

>  <vsurf_G>
1.42657

>  <vsurf_HB1>
384.625

>  <vsurf_HB2>
434.875

>  <vsurf_HB3>
405.125

>  <vsurf_HB4>
157.375

>  <vsurf_HB5>
55.375

>  <vsurf_HB6>
16.375

>  <vsurf_HB7>
1.75

>  <vsurf_HB8>
0

>  <vsurf_HL1>
0.117456

>  <vsurf_HL2>
0.0405048

>  <vsurf_ID1>
1.59419

>  <vsurf_ID2>
1.53457

>  <vsurf_ID3>
1.68125

>  <vsurf_ID4>
1.94167

>  <vsurf_ID5>
2.18491

>  <vsurf_ID6>
2.25068

>  <vsurf_ID7>
1.31041

>  <vsurf_ID8>
0.841826

>  <vsurf_IW1>
0.14472

>  <vsurf_IW2>
1.06717

>  <vsurf_IW3>
1.82391

>  <vsurf_IW4>
2.42221

>  <vsurf_IW5>
2.10451

>  <vsurf_IW6>
1.69065

>  <vsurf_IW7>
2.87226

>  <vsurf_IW8>
0

>  <vsurf_R>
1.46546

>  <vsurf_S>
705.153

>  <vsurf_V>
1033.38

>  <vsurf_W1>
1702.25

>  <vsurf_W2>
997.25

>  <vsurf_W3>
502.5

>  <vsurf_W4>
168.625

>  <vsurf_W5>
58.875

>  <vsurf_W6>
17.25

>  <vsurf_W7>
1.75

>  <vsurf_W8>
0

>  <vsurf_Wp1>
1317.63

>  <vsurf_Wp2>
562.375

>  <vsurf_Wp3>
97.375

>  <vsurf_Wp4>
11.25

>  <vsurf_Wp5>
3.5

>  <vsurf_Wp6>
0.875

>  <vsurf_Wp7>
0

>  <vsurf_Wp8>
0

>  <dens>
1.1064

>  <glob>
0.0457418

>  <std_dim1>
5.15096

>  <std_dim2>
2.53499

>  <std_dim3>
1.10165

>  <vol>
448.75

>  <logP(o/w)>
3.671

$$$$
D14.cdx
  MOE2008           3D

 59 64  0  0  0  0  0  0  0  0999 V2000
   -5.0200  -13.0540   -0.4570 C   0  0  0  0  0  0  0  0  0  0  0  0
   -5.8960  -12.4210   -0.5600 H   0  0  0  0  0  0  0  0  0  0  0  0
   -5.0130  -14.3360   -0.9920 C   0  0  0  0  0  0  0  0  0  0  0  0
   -5.8970  -14.6960   -1.5160 H   0  0  0  0  0  0  0  0  0  0  0  0
   -3.8950  -15.1780   -0.8630 C   0  0  0  0  0  0  0  0  0  0  0  0
   -2.7660  -14.6530   -0.1960 C   0  0  0  0  0  0  0  0  0  0  0  0
   -2.7430  -13.3630    0.3580 C   0  0  0  0  0  0  0  0  0  0  0  0
   -3.9020  -12.5680    0.2200 C   0  0  0  0  0  0  0  0  0  0  0  0
   -1.5170  -15.1940    0.0180 N   0  0  0  0  0  0  0  0  0  0  0  0
   -1.2150  -16.1010   -0.3130 H   0  0  0  0  0  0  0  0  0  0  0  0
   -0.7350  -14.3310    0.7360 C   0  0  0  0  0  0  0  0  0  0  0  0
    0.2740  -14.6160    1.0080 H   0  0  0  0  0  0  0  0  0  0  0  0
   -1.4520  -13.1700    0.9630 C   0  0  0  0  0  0  0  0  0  0  0  0
   -0.9400  -11.9950    1.6650 C   0  0  0  0  0  0  0  0  0  0  0  0
    0.4730  -11.9990    2.2210 C   0  0  0  0  0  0  0  0  0  0  0  0
    1.4790  -11.5080    1.3940 N   0  0  0  0  0  0  0  0  0  0  0  0
    2.8650  -11.4870    1.8600 C   0  0  0  0  0  0  0  0  0  0  0  0
    3.1610  -10.4330    1.9330 H   0  0  0  0  0  0  0  0  0  0  0  0
    2.9530  -11.9270    2.8580 H   0  0  0  0  0  0  0  0  0  0  0  0
    3.7880  -12.2240    0.8790 C   0  0  0  0  0  0  0  0  0  0  0  0
    3.5710  -13.2990    0.8950 H   0  0  0  0  0  0  0  0  0  0  0  0
    4.8230  -12.0800    1.1960 H   0  0  0  0  0  0  0  0  0  0  0  0
    3.5770  -11.7730   -0.5090 N   0  0  0  0  0  0  0  0  0  0  0  0
    2.1790  -11.7440   -0.9560 C   0  0  0  0  0  0  0  0  0  0  0  0
    2.0890  -11.3010   -1.9520 H   0  0  0  0  0  0  0  0  0  0  0  0
    1.8540  -12.7890   -1.0300 H   0  0  0  0  0  0  0  0  0  0  0  0
    1.2830  -10.9900    0.0330 C   0  0  0  0  0  0  0  0  0  0  0  0
    0.2410  -11.0590   -0.2830 H   0  0  0  0  0  0  0  0  0  0  0  0
    1.5540   -9.9280    0.0550 H   0  0  0  0  0  0  0  0  0  0  0  0
    4.5770  -11.3890   -1.4000 C   0  0  0  0  0  0  0  0  0  0  0  0
    5.9910  -11.6190   -1.0300 C   0  0  0  0  0  0  0  0  0  0  0  0
   -1.5820  -10.9620    1.8260 O   0  0  0  0  0  0  0  0  0  0  0  0
    0.6360  -12.4430    3.3520 O   0  0  0  0  0  0  0  0  0  0  0  0
    4.3660  -10.8700   -2.4920 O   0  0  0  0  0  0  0  0  0  0  0  0
   -3.9690  -11.3260    0.7180 F   0  0  0  0  0  0  0  0  0  0  0  0
    6.4600  -12.9180   -0.8060 C   0  0  0  0  0  0  0  0  0  0  0  0
    5.7900  -13.7700   -0.8840 H   0  0  0  0  0  0  0  0  0  0  0  0
    7.8020  -13.1180   -0.4860 C   0  0  0  0  0  0  0  0  0  0  0  0
    8.1750  -14.1230   -0.3040 H   0  0  0  0  0  0  0  0  0  0  0  0
    8.6710  -12.0270   -0.4090 C   0  0  0  0  0  0  0  0  0  0  0  0
    9.7190  -12.1860   -0.1630 H   0  0  0  0  0  0  0  0  0  0  0  0
    8.2040  -10.7350   -0.6580 C   0  0  0  0  0  0  0  0  0  0  0  0
    8.8890   -9.8920   -0.6090 H   0  0  0  0  0  0  0  0  0  0  0  0
    6.8620  -10.5270   -0.9760 C   0  0  0  0  0  0  0  0  0  0  0  0
    6.4990   -9.5240   -1.1810 H   0  0  0  0  0  0  0  0  0  0  0  0
   -3.9450  -16.5260   -1.4180 C   0  0  0  0  0  0  0  0  0  0  0  0
   -4.4160  -16.8620   -2.6060 N   0  0  0  0  0  0  0  0  0  0  0  0
   -4.2850  -18.2260   -2.6920 C   0  0  0  0  0  0  0  0  0  0  0  0
   -3.7480  -18.7460   -1.5210 C   0  0  0  0  0  0  0  0  0  0  0  0
   -3.5660  -17.6500   -0.7190 N   0  0  0  0  0  0  0  0  0  0  0  0
   -3.2190  -17.6630    0.2290 H   0  0  0  0  0  0  0  0  0  0  0  0
   -4.6080  -19.0950   -3.7450 C   0  0  0  0  0  0  0  0  0  0  0  0
   -5.0290  -18.7060   -4.6660 H   0  0  0  0  0  0  0  0  0  0  0  0
   -4.3750  -20.4650   -3.5770 C   0  0  0  0  0  0  0  0  0  0  0  0
   -4.6190  -21.1530   -4.3830 H   0  0  0  0  0  0  0  0  0  0  0  0
   -3.8350  -20.9590   -2.3860 C   0  0  0  0  0  0  0  0  0  0  0  0
   -3.6660  -22.0290   -2.2800 H   0  0  0  0  0  0  0  0  0  0  0  0
   -3.5080  -20.1070   -1.3240 C   0  0  0  0  0  0  0  0  0  0  0  0
   -3.0950  -20.4950   -0.4000 H   0  0  0  0  0  0  0  0  0  0  0  0
  1  2  1  0  0  0  0
  1  3  1  0  0  0  0
  1  8  2  0  0  0  0
  3  4  1  0  0  0  0
  3  5  2  0  0  0  0
  5  6  1  0  0  0  0
  5 46  1  0  0  0  0
  6  7  2  0  0  0  0
  6  9  1  0  0  0  0
  7  8  1  0  0  0  0
  7 13  1  0  0  0  0
  8 35  1  0  0  0  0
  9 10  1  0  0  0  0
  9 11  1  0  0  0  0
 11 12  1  0  0  0  0
 11 13  2  0  0  0  0
 13 14  1  0  0  0  0
 14 15  1  0  0  0  0
 14 32  2  0  0  0  0
 15 16  1  0  0  0  0
 15 33  2  0  0  0  0
 16 17  1  0  0  0  0
 16 27  1  0  0  0  0
 17 18  1  0  0  0  0
 17 19  1  0  0  0  0
 17 20  1  0  0  0  0
 20 21  1  0  0  0  0
 20 22  1  0  0  0  0
 20 23  1  0  0  0  0
 23 24  1  0  0  0  0
 23 30  1  0  0  0  0
 24 25  1  0  0  0  0
 24 26  1  0  0  0  0
 24 27  1  0  0  0  0
 27 28  1  0  0  0  0
 27 29  1  0  0  0  0
 30 31  1  0  0  0  0
 30 34  2  0  0  0  0
 31 36  1  0  0  0  0
 31 44  2  0  0  0  0
 36 37  1  0  0  0  0
 36 38  2  0  0  0  0
 38 39  1  0  0  0  0
 38 40  1  0  0  0  0
 40 41  1  0  0  0  0
 40 42  2  0  0  0  0
 42 43  1  0  0  0  0
 42 44  1  0  0  0  0
 44 45  1  0  0  0  0
 46 47  2  0  0  0  0
 46 50  1  0  0  0  0
 47 48  1  0  0  0  0
 48 49  1  0  0  0  0
 48 52  2  0  0  0  0
 49 50  1  0  0  0  0
 49 58  2  0  0  0  0
 50 51  1  0  0  0  0
 52 53  1  0  0  0  0
 52 54  1  0  0  0  0
 54 55  1  0  0  0  0
 54 56  2  0  0  0  0
 56 57  1  0  0  0  0
 56 58  1  0  0  0  0
 58 59  1  0  0  0  0
M  END
>  <Activity>
9.2757

>  <AM1_dipole>
6.19781

>  <AM1_E>
-146782

>  <AM1_Eele>
-1.21674e+006

>  <AM1_HF>
32.6082

>  <AM1_HOMO>
-8.82875

>  <AM1_IP>
8.82875

>  <AM1_LUMO>
-0.99242

>  <diameter>
19

>  <petitjean>
0.473684

>  <petitjeanSC>
0.9

>  <radius>
10

>  <VDistEq>
3.98726

>  <VDistMa>
10.101

>  <weinerPath>
4739

>  <weinerPol>
65

>  <BCUT_PEOE_0>
-2.71188

>  <BCUT_PEOE_1>
-0.644224

>  <BCUT_PEOE_2>
0.666875

>  <BCUT_PEOE_3>
2.6503

>  <BCUT_SLOGP_0>
-2.86001

>  <BCUT_SLOGP_1>
-0.553616

>  <BCUT_SLOGP_2>
0.786679

>  <BCUT_SLOGP_3>
2.50361

>  <BCUT_SMR_0>
-2.43203

>  <BCUT_SMR_1>
-0.465796

>  <BCUT_SMR_2>
0.832623

>  <BCUT_SMR_3>
2.92026

>  <GCUT_PEOE_0>
-0.858597

>  <GCUT_PEOE_1>
-0.437914

>  <GCUT_PEOE_2>
0.0773281

>  <GCUT_PEOE_3>
2.74506

>  <GCUT_SLOGP_0>
-0.976494

>  <GCUT_SLOGP_1>
-0.3347

>  <GCUT_SLOGP_2>
0.175025

>  <GCUT_SLOGP_3>
2.77351

>  <GCUT_SMR_0>
-0.508917

>  <GCUT_SMR_1>
-0.21513

>  <GCUT_SMR_2>
0.219592

>  <GCUT_SMR_3>
3.02956

>  <a_aro>
24

>  <a_count>
59

>  <a_IC>
97.998

>  <a_ICM>
1.66098

>  <a_nH>
22

>  <b_1rotN>
6

>  <b_1rotR>
0.142857

>  <b_ar>
26

>  <b_count>
64

>  <b_double>
3

>  <b_rotN>
6

>  <b_rotR>
0.142857

>  <b_single>
35

>  <b_triple>
0

>  <chi0v>
19.701

>  <chi0v_C>
15.7566

>  <chi1v>
11.9368

>  <chi1v_C>
7.93739

>  <chiral>
0

>  <chiral_u>
0

>  <nmol>
1

>  <reactive>
0

>  <rings>
6

>  <Weight>
495.514

>  <a_heavy>
37

>  <a_nB>
0

>  <a_nBr>
0

>  <a_nC>
28

>  <a_nCl>
0

>  <a_nF>
1

>  <a_nI>
0

>  <a_nN>
5

>  <a_nO>
3

>  <a_nP>
0

>  <a_nS>
0

>  <b_heavy>
42

>  <chi0>
25.5179

>  <chi0_C>
18.2419

>  <chi1>
18.008

>  <chi1_C>
10.8577

>  <FCharge>
0

>  <VAdjEq>
0.332815

>  <VAdjMa>
6.39232

>  <zagreb>
206

>  <balabanJ>
1.04721

>  <PEOE_PC+>
3.15331

>  <PEOE_PC->
-3.15331

>  <PEOE_RPC+>
0.0935845

>  <PEOE_RPC->
0.113952

>  <PEOE_VSA+0>
76.1408

>  <PEOE_VSA+1>
107.615

>  <PEOE_VSA+2>
20.2114

>  <PEOE_VSA+3>
17.238

>  <PEOE_VSA+4>
0

>  <PEOE_VSA+5>
34.3576

>  <PEOE_VSA+6>
0

>  <PEOE_VSA-0>
73.5294

>  <PEOE_VSA-1>
61.2745

>  <PEOE_VSA-2>
0

>  <PEOE_VSA-3>
0

>  <PEOE_VSA-4>
17.5912

>  <PEOE_VSA-5>
40.7008

>  <PEOE_VSA-6>
0.273782

>  <PEOE_VSA_FHYD>
0.793013

>  <PEOE_VSA_FNEG>
0.430732

>  <PEOE_VSA_FPNEG>
0.130456

>  <PEOE_VSA_FPOL>
0.206987

>  <PEOE_VSA_FPOS>
0.569268

>  <PEOE_VSA_FPPOS>
0.0765317

>  <PEOE_VSA_HYD>
356.009

>  <PEOE_VSA_NEG>
193.37

>  <PEOE_VSA_PNEG>
58.5658

>  <PEOE_VSA_POL>
92.9233

>  <PEOE_VSA_POS>
255.563

>  <PEOE_VSA_PPOS>
34.3576

>  <PC+>
6.126

>  <PC->
-6.127

>  <Q_PC+>
6.126

>  <Q_PC->
-6.127

>  <Q_RPC+>
0.107085

>  <Q_RPC->
0.10772

>  <Q_VSA_FHYD>
0.611982

>  <Q_VSA_FNEG>
0.50219

>  <Q_VSA_FPNEG>
0.140621

>  <Q_VSA_FPOL>
0.388018

>  <Q_VSA_FPOS>
0.49781

>  <Q_VSA_FPPOS>
0.247397

>  <Q_VSA_HYD>
274.739

>  <Q_VSA_NEG>
225.449

>  <Q_VSA_PNEG>
63.1293

>  <Q_VSA_POL>
174.194

>  <Q_VSA_POS>
223.483

>  <Q_VSA_PPOS>
111.064

>  <RPC+>
0.107085

>  <RPC->
0.10772

>  <lip_acc>
8

>  <lip_don>
2

>  <lip_druglike>
1

>  <lip_violation>
0

>  <opr_brigid>
32

>  <opr_leadlike>
0

>  <opr_nring>
6

>  <opr_nrot>
6

>  <opr_violation>
2

>  <E>
114.405

>  <E_ang>
9.44401

>  <E_ele>
32.9136

>  <E_nb>
91.141

>  <E_oop>
0.0709845

>  <E_sol>
-27.2726

>  <E_stb>
-0.29875

>  <E_str>
8.20738

>  <E_strain>
0.00524029

>  <E_tor>
5.84063

>  <E_vdw>
58.2274

>  <E_rele>
0

>  <E_rnb>
4.26326e-014

>  <E_rsol>
4.26326e-014

>  <E_rvdw>
0

>  <Kier1>
27.1837

>  <Kier2>
11.8517

>  <Kier3>
5.49822

>  <KierA1>
18.2144

>  <KierA2>
7.84528

>  <KierA3>
3.60775

>  <KierFlex>
3.86209

>  <logS>
-7.42993

>  <MNDO_dipole>
5.29552

>  <MNDO_E>
-146895

>  <MNDO_Eele>
-1.2019e+006

>  <MNDO_HF>
-13.398

>  <MNDO_HOMO>
-8.93877

>  <MNDO_IP>
8.93877

>  <MNDO_LUMO>
-0.95921

>  <apol>
72.4124

>  <bpol>
34.7276

>  <mr>
13.7147

>  <dipole>
2.05038

>  <dipoleX>
1.13226

>  <dipoleY>
-1.63667

>  <dipoleZ>
0.493296

>  <pmi>
14888.1

>  <pmiX>
9002.94

>  <pmiY>
4598.79

>  <pmiZ>
1286.41

>  <rgyr>
5.48141

>  <a_acc>
5

>  <a_acid>
0

>  <a_base>
0

>  <a_don>
3

>  <a_hyd>
25

>  <vsa_acc>
40.7008

>  <vsa_acid>
0

>  <vsa_base>
0

>  <vsa_don>
5.68258

>  <vsa_hyd>
325.253

>  <vsa_other>
45.5481

>  <vsa_pol>
57.7485

>  <PM3_dipole>
6.70628

>  <PM3_E>
-133452

>  <PM3_Eele>
-1.19975e+006

>  <PM3_HF>
-25.0493

>  <PM3_HOMO>
-8.92604

>  <PM3_IP>
8.92604

>  <PM3_LUMO>
-1.03339

>  <SlogP>
4.0176

>  <SlogP_VSA0>
0

>  <SlogP_VSA1>
39.2393

>  <SlogP_VSA2>
66.5543

>  <SlogP_VSA3>
73.7583

>  <SlogP_VSA4>
54.0956

>  <SlogP_VSA5>
0

>  <SlogP_VSA6>
0

>  <SlogP_VSA7>
225.808

>  <SlogP_VSA8>
0

>  <SlogP_VSA9>
14.9601

>  <SMR>
13.66

>  <SMR_VSA0>
71.5866

>  <SMR_VSA1>
37.9943

>  <SMR_VSA2>
42.6921

>  <SMR_VSA3>
6.37115

>  <SMR_VSA4>
14.5189

>  <SMR_VSA5>
211.289

>  <SMR_VSA6>
89.9635

>  <SMR_VSA7>
0

>  <ASA>
773.582

>  <ASA+>
341.611

>  <ASA->
333.055

>  <ASA_H>
590.483

>  <ASA_P>
183.1

>  <CASA+>
2092.71

>  <CASA->
2040.63

>  <DASA>
8.55538

>  <DCASA>
52.0772

>  <FASA+>
0.441596

>  <FASA->
0.430536

>  <FASA_H>
0.763309

>  <FASA_P>
0.236691

>  <FCASA+>
2.70521

>  <FCASA->
2.6379

>  <VSA>
491.019

>  <TPSA>
102.16

>  <density>
0.774204

>  <vdw_area>
448.932

>  <vdw_vol>
640.03

>  <vsurf_A>
3.02599

>  <vsurf_CP>
0.0956644

>  <vsurf_CW1>
2.60878

>  <vsurf_CW2>
2.09178

>  <vsurf_CW3>
1.34009

>  <vsurf_CW4>
0.678334

>  <vsurf_CW5>
0.302835

>  <vsurf_CW6>
0.0837374

>  <vsurf_CW7>
0.00516093

>  <vsurf_CW8>
0

>  <vsurf_D1>
1076.38

>  <vsurf_D2>
628.25

>  <vsurf_D3>
474.125

>  <vsurf_D4>
403.875

>  <vsurf_D5>
346.625

>  <vsurf_D6>
279.375

>  <vsurf_D7>
155.375

>  <vsurf_D8>
85.75

>  <vsurf_DD12>
0.5

>  <vsurf_DD13>
0.707107

>  <vsurf_DD23>
0.5

>  <vsurf_DW12>
0.5

>  <vsurf_DW13>
0.707107

>  <vsurf_DW23>
0.5

>  <vsurf_EDmin1>
-2.85493

>  <vsurf_EDmin2>
-2.84224

>  <vsurf_EDmin3>
-2.79901

>  <vsurf_EWmin1>
-5.43532

>  <vsurf_EWmin2>
-5.39

>  <vsurf_EWmin3>
-5.34437

>  <vsurf_G>
1.42496

>  <vsurf_HB1>
366.5

>  <vsurf_HB2>
419.125

>  <vsurf_HB3>
398.75

>  <vsurf_HB4>
158.125

>  <vsurf_HB5>
48.25

>  <vsurf_HB6>
9

>  <vsurf_HB7>
0.375

>  <vsurf_HB8>
0

>  <vsurf_HL1>
0.138149

>  <vsurf_HL2>
0.0408542

>  <vsurf_ID1>
1.4233

>  <vsurf_ID2>
1.35812

>  <vsurf_ID3>
1.50381

>  <vsurf_ID4>
1.71886

>  <vsurf_ID5>
1.93972

>  <vsurf_ID6>
1.9615

>  <vsurf_ID7>
1.04823

>  <vsurf_ID8>
0.702068

>  <vsurf_IW1>
0.202033

>  <vsurf_IW2>
0.760259

>  <vsurf_IW3>
1.31386

>  <vsurf_IW4>
1.7408

>  <vsurf_IW5>
1.53813

>  <vsurf_IW6>
1.4946

>  <vsurf_IW7>
4.02298

>  <vsurf_IW8>
0

>  <vsurf_R>
1.46772

>  <vsurf_S>
704.922

>  <vsurf_V>
1034.63

>  <vsurf_W1>
1698.5

>  <vsurf_W2>
1019.13

>  <vsurf_W3>
534.625

>  <vsurf_W4>
194.75

>  <vsurf_W5>
65.5

>  <vsurf_W6>
16.5

>  <vsurf_W7>
1.375

>  <vsurf_W8>
0

>  <vsurf_Wp1>
1332

>  <vsurf_Wp2>
600

>  <vsurf_Wp3>
135.875

>  <vsurf_Wp4>
36.625

>  <vsurf_Wp5>
17.25

>  <vsurf_Wp6>
7.5

>  <vsurf_Wp7>
1

>  <vsurf_Wp8>
0

>  <dens>
1.09234

>  <glob>
0.057667

>  <std_dim1>
5.15192

>  <std_dim2>
2.39872

>  <std_dim3>
1.23718

>  <vol>
453.625

>  <logP(o/w)>
3.608

$$$$
D15.cdx
  MOE2008           3D

 48 51  0  0  0  0  0  0  0  0999 V2000
   -7.4730   20.9590    1.4590 C   0  0  0  0  0  0  0  0  0  0  0  0
   -8.1840   21.7380    1.7240 H   0  0  0  0  0  0  0  0  0  0  0  0
   -7.6170   19.6810    1.9790 C   0  0  0  0  0  0  0  0  0  0  0  0
   -8.4440   19.4660    2.6490 H   0  0  0  0  0  0  0  0  0  0  0  0
   -6.6990   18.6810    1.6370 C   0  0  0  0  0  0  0  0  0  0  0  0
   -5.6800   19.0900    0.7640 C   0  0  0  0  0  0  0  0  0  0  0  0
   -5.6060   20.3970    0.2770 C   0  0  0  0  0  0  0  0  0  0  0  0
   -6.4990   21.3580    0.6190 N   0  0  0  0  0  0  0  0  0  0  0  0
   -4.6200   18.4070    0.2200 N   0  0  0  0  0  0  0  0  0  0  0  0
   -4.4180   17.4300    0.3860 H   0  0  0  0  0  0  0  0  0  0  0  0
   -3.8790   19.2390   -0.5800 C   0  0  0  0  0  0  0  0  0  0  0  0
   -3.0040   18.8600   -1.0920 H   0  0  0  0  0  0  0  0  0  0  0  0
   -4.4740   20.4900   -0.5820 C   0  0  0  0  0  0  0  0  0  0  0  0
   -4.0120   21.6520   -1.3250 C   0  0  0  0  0  0  0  0  0  0  0  0
   -2.6660   21.6020   -2.0270 C   0  0  0  0  0  0  0  0  0  0  0  0
   -1.5920   22.2010   -1.3700 N   0  0  0  0  0  0  0  0  0  0  0  0
   -0.2560   22.1130   -1.9610 C   0  0  0  0  0  0  0  0  0  0  0  0
   -0.1930   21.2480   -2.6290 H   0  0  0  0  0  0  0  0  0  0  0  0
   -0.1210   23.0130   -2.5730 H   0  0  0  0  0  0  0  0  0  0  0  0
    0.8350   22.0330   -0.8890 C   0  0  0  0  0  0  0  0  0  0  0  0
    1.8220   22.0130   -1.3610 H   0  0  0  0  0  0  0  0  0  0  0  0
    0.7110   21.1090   -0.3120 H   0  0  0  0  0  0  0  0  0  0  0  0
    0.7660   23.1480    0.0690 N   0  0  0  0  0  0  0  0  0  0  0  0
   -0.5160   23.8470    0.1760 C   0  0  0  0  0  0  0  0  0  0  0  0
   -0.6140   24.3050    1.1660 H   0  0  0  0  0  0  0  0  0  0  0  0
   -0.4910   24.6600   -0.5600 H   0  0  0  0  0  0  0  0  0  0  0  0
   -1.7120   22.9290   -0.0990 C   0  0  0  0  0  0  0  0  0  0  0  0
   -2.6360   23.5130   -0.0890 H   0  0  0  0  0  0  0  0  0  0  0  0
   -1.7890   22.1690    0.6880 H   0  0  0  0  0  0  0  0  0  0  0  0
    1.8350   23.5960    0.8440 C   0  0  0  0  0  0  0  0  0  0  0  0
    3.0840   22.8010    0.8560 C   0  0  0  0  0  0  0  0  0  0  0  0
   -4.6420   22.7010   -1.4240 O   0  0  0  0  0  0  0  0  0  0  0  0
   -2.6060   21.0190   -3.1040 O   0  0  0  0  0  0  0  0  0  0  0  0
    1.8160   24.6210    1.5190 O   0  0  0  0  0  0  0  0  0  0  0  0
    3.0830   21.4840    1.3270 C   0  0  0  0  0  0  0  0  0  0  0  0
    2.1660   21.0220    1.6830 H   0  0  0  0  0  0  0  0  0  0  0  0
    4.2770   20.7630    1.3520 C   0  0  0  0  0  0  0  0  0  0  0  0
    4.2880   19.7370    1.7130 H   0  0  0  0  0  0  0  0  0  0  0  0
    5.4640   21.3610    0.9230 C   0  0  0  0  0  0  0  0  0  0  0  0
    6.3930   20.7980    0.9470 H   0  0  0  0  0  0  0  0  0  0  0  0
    5.4640   22.6850    0.4770 C   0  0  0  0  0  0  0  0  0  0  0  0
    6.3930   23.1500    0.1580 H   0  0  0  0  0  0  0  0  0  0  0  0
    4.2740   23.4110    0.4490 C   0  0  0  0  0  0  0  0  0  0  0  0
    4.2760   24.4450    0.1130 H   0  0  0  0  0  0  0  0  0  0  0  0
   -6.8500   17.2990    2.1960 C   0  0  0  0  0  0  0  0  0  0  0  0
   -6.7980   17.3270    3.2890 H   0  0  0  0  0  0  0  0  0  0  0  0
   -6.0630   16.6290    1.8390 H   0  0  0  0  0  0  0  0  0  0  0  0
   -7.8140   16.8750    1.8960 H   0  0  0  0  0  0  0  0  0  0  0  0
  1  2  1  0  0  0  0
  1  3  1  0  0  0  0
  1  8  2  0  0  0  0
  3  4  1  0  0  0  0
  3  5  2  0  0  0  0
  5  6  1  0  0  0  0
  5 45  1  0  0  0  0
  6  7  2  0  0  0  0
  6  9  1  0  0  0  0
  7  8  1  0  0  0  0
  7 13  1  0  0  0  0
  9 10  1  0  0  0  0
  9 11  1  0  0  0  0
 11 12  1  0  0  0  0
 11 13  2  0  0  0  0
 13 14  1  0  0  0  0
 14 15  1  0  0  0  0
 14 32  2  0  0  0  0
 15 16  1  0  0  0  0
 15 33  2  0  0  0  0
 16 17  1  0  0  0  0
 16 27  1  0  0  0  0
 17 18  1  0  0  0  0
 17 19  1  0  0  0  0
 17 20  1  0  0  0  0
 20 21  1  0  0  0  0
 20 22  1  0  0  0  0
 20 23  1  0  0  0  0
 23 24  1  0  0  0  0
 23 30  1  0  0  0  0
 24 25  1  0  0  0  0
 24 26  1  0  0  0  0
 24 27  1  0  0  0  0
 27 28  1  0  0  0  0
 27 29  1  0  0  0  0
 30 31  1  0  0  0  0
 30 34  2  0  0  0  0
 31 35  1  0  0  0  0
 31 43  2  0  0  0  0
 35 36  1  0  0  0  0
 35 37  2  0  0  0  0
 37 38  1  0  0  0  0
 37 39  1  0  0  0  0
 39 40  1  0  0  0  0
 39 41  2  0  0  0  0
 41 42  1  0  0  0  0
 41 43  1  0  0  0  0
 43 44  1  0  0  0  0
 45 46  1  0  0  0  0
 45 47  1  0  0  0  0
 45 48  1  0  0  0  0
M  END
>  <Activity>
7.3344

>  <AM1_dipole>
7.24928

>  <AM1_E>
-109557

>  <AM1_Eele>
-825223

>  <AM1_HF>
7.50626

>  <AM1_HOMO>
-9.23293

>  <AM1_IP>
9.23293

>  <AM1_LUMO>
-0.57556

>  <diameter>
15

>  <petitjean>
0.466667

>  <petitjeanSC>
0.875

>  <radius>
8

>  <VDistEq>
3.68215

>  <VDistMa>
9.29035

>  <weinerPath>
2228

>  <weinerPol>
47

>  <BCUT_PEOE_0>
-2.71185

>  <BCUT_PEOE_1>
-0.623435

>  <BCUT_PEOE_2>
0.615344

>  <BCUT_PEOE_3>
2.65034

>  <BCUT_SLOGP_0>
-2.86001

>  <BCUT_SLOGP_1>
-0.537947

>  <BCUT_SLOGP_2>
0.711243

>  <BCUT_SLOGP_3>
2.50326

>  <BCUT_SMR_0>
-2.43203

>  <BCUT_SMR_1>
-0.419343

>  <BCUT_SMR_2>
0.770039

>  <BCUT_SMR_3>
2.92018

>  <GCUT_PEOE_0>
-0.856082

>  <GCUT_PEOE_1>
-0.40707

>  <GCUT_PEOE_2>
0.071904

>  <GCUT_PEOE_3>
2.66009

>  <GCUT_SLOGP_0>
-0.9765

>  <GCUT_SLOGP_1>
-0.320533

>  <GCUT_SLOGP_2>
0.146613

>  <GCUT_SLOGP_3>
2.63488

>  <GCUT_SMR_0>
-0.508931

>  <GCUT_SMR_1>
-0.208088

>  <GCUT_SMR_2>
0.206486

>  <GCUT_SMR_3>
2.92918

>  <a_aro>
15

>  <a_count>
48

>  <a_IC>
76.6461

>  <a_ICM>
1.59679

>  <a_nH>
20

>  <b_1rotN>
5

>  <b_1rotR>
0.16129

>  <b_ar>
16

>  <b_count>
51

>  <b_double>
3

>  <b_rotN>
5

>  <b_rotR>
0.16129

>  <b_single>
32

>  <b_triple>
0

>  <chi0v>
15.5136

>  <chi0v_C>
12.4472

>  <chi1v>
9.16635

>  <chi1v_C>
5.82137

>  <chiral>
0

>  <chiral_u>
0

>  <nmol>
1

>  <reactive>
0

>  <rings>
4

>  <Weight>
376.416

>  <a_heavy>
28

>  <a_nB>
0

>  <a_nBr>
0

>  <a_nC>
21

>  <a_nCl>
0

>  <a_nF>
0

>  <a_nI>
0

>  <a_nN>
4

>  <a_nO>
3

>  <a_nP>
0

>  <a_nS>
0

>  <b_heavy>
31

>  <chi0>
19.673

>  <chi0_C>
14.1041

>  <chi1>
13.5586

>  <chi1_C>
7.71034

>  <FCharge>
0

>  <VAdjEq>
0.398935

>  <VAdjMa>
5.9542

>  <zagreb>
150

>  <balabanJ>
1.28268

>  <PEOE_PC+>
2.47365

>  <PEOE_PC->
-2.47365

>  <PEOE_RPC+>
0.119318

>  <PEOE_RPC->
0.144932

>  <PEOE_VSA+0>
101.266

>  <PEOE_VSA+1>
83.8538

>  <PEOE_VSA+2>
0

>  <PEOE_VSA+3>
8.61901

>  <PEOE_VSA+4>
0

>  <PEOE_VSA+5>
34.3576

>  <PEOE_VSA+6>
0

>  <PEOE_VSA-0>
57.7209

>  <PEOE_VSA-1>
36.7647

>  <PEOE_VSA-2>
0

>  <PEOE_VSA-3>
0

>  <PEOE_VSA-4>
0

>  <PEOE_VSA-5>
46.3833

>  <PEOE_VSA-6>
0.136891

>  <PEOE_VSA_FHYD>
0.78088

>  <PEOE_VSA_FNEG>
0.382024

>  <PEOE_VSA_FPNEG>
0.126036

>  <PEOE_VSA_FPOL>
0.21912

>  <PEOE_VSA_FPOS>
0.617976

>  <PEOE_VSA_FPPOS>
0.0930842

>  <PEOE_VSA_HYD>
288.224

>  <PEOE_VSA_NEG>
141.006

>  <PEOE_VSA_PNEG>
46.5202

>  <PEOE_VSA_POL>
80.8778

>  <PEOE_VSA_POS>
228.096

>  <PEOE_VSA_PPOS>
34.3576

>  <PC+>
5.179

>  <PC->
-5.18

>  <Q_PC+>
5.179

>  <Q_PC->
-5.18

>  <Q_RPC+>
0.126665

>  <Q_RPC->
0.127413

>  <Q_VSA_FHYD>
0.551412

>  <Q_VSA_FNEG>
0.400364

>  <Q_VSA_FPNEG>
0.171035

>  <Q_VSA_FPOL>
0.448588

>  <Q_VSA_FPOS>
0.599636

>  <Q_VSA_FPPOS>
0.277553

>  <Q_VSA_HYD>
203.527

>  <Q_VSA_NEG>
147.775

>  <Q_VSA_PNEG>
63.1293

>  <Q_VSA_POL>
165.575

>  <Q_VSA_POS>
221.327

>  <Q_VSA_PPOS>
102.445

>  <RPC+>
0.126665

>  <RPC->
0.127413

>  <lip_acc>
7

>  <lip_don>
1

>  <lip_druglike>
1

>  <lip_violation>
0

>  <opr_brigid>
22

>  <opr_leadlike>
1

>  <opr_nring>
4

>  <opr_nrot>
5

>  <opr_violation>
0

>  <E>
94.2852

>  <E_ang>
6.33563

>  <E_ele>
29.9484

>  <E_nb>
77.2775

>  <E_oop>
0.0611794

>  <E_sol>
-23.6218

>  <E_stb>
1.01934

>  <E_str>
5.29998

>  <E_strain>
0.00435442

>  <E_tor>
4.29162

>  <E_vdw>
47.3291

>  <E_rele>
0

>  <E_rnb>
-5.68434e-014

>  <E_rsol>
-5.68434e-014

>  <E_rvdw>
0

>  <Kier1>
21.2404

>  <Kier2>
9.42769

>  <Kier3>
4.54179

>  <KierA1>
14.4909

>  <KierA2>
6.33273

>  <KierA3>
3.01716

>  <KierFlex>
3.2774

>  <logS>
-2.90072

>  <MNDO_dipole>
7.86832

>  <MNDO_E>
-109798

>  <MNDO_Eele>
-819656

>  <MNDO_HF>
-14.3895

>  <MNDO_HOMO>
-9.28136

>  <MNDO_IP>
9.28136

>  <MNDO_LUMO>
-0.67884

>  <apol>
57.1019

>  <bpol>
30.6781

>  <mr>
10.5598

>  <dipole>
2.03844

>  <dipoleX>
0.538028

>  <dipoleY>
-1.87498

>  <dipoleZ>
0.591802

>  <pmi>
8176.43

>  <pmiX>
6250.19

>  <pmiY>
1239.96

>  <pmiZ>
686.277

>  <rgyr>
4.66066

>  <a_acc>
4

>  <a_acid>
0

>  <a_base>
0

>  <a_don>
1

>  <a_hyd>
18

>  <vsa_acc>
46.3833

>  <vsa_acid>
0

>  <vsa_base>
0

>  <vsa_don>
5.68258

>  <vsa_hyd>
266.081

>  <vsa_other>
34.3576

>  <vsa_pol>
52.0659

>  <PM3_dipole>
7.43149

>  <PM3_E>
-99742.7

>  <PM3_Eele>
-807018

>  <PM3_HF>
-30.2804

>  <PM3_HOMO>
-9.0773

>  <PM3_IP>
9.0773

>  <PM3_LUMO>
-0.6697

>  <SlogP>
2.03862

>  <SlogP_VSA0>
0

>  <SlogP_VSA1>
39.2393

>  <SlogP_VSA2>
40.6477

>  <SlogP_VSA3>
73.7583

>  <SlogP_VSA4>
57.2812

>  <SlogP_VSA5>
0

>  <SlogP_VSA6>
0

>  <SlogP_VSA7>
144.576

>  <SlogP_VSA8>
0

>  <SlogP_VSA9>
33.326

>  <SMR>
10.4087

>  <SMR_VSA0>
71.5866

>  <SMR_VSA1>
23.0342

>  <SMR_VSA2>
16.7855

>  <SMR_VSA3>
9.55672

>  <SMR_VSA4>
4.28827

>  <SMR_VSA5>
140.288

>  <SMR_VSA6>
89.9635

>  <SMR_VSA7>
33.326

>  <ASA>
640.813

>  <ASA+>
267.633

>  <ASA->
217.924

>  <ASA_H>
471.266

>  <ASA_P>
169.547

>  <CASA+>
1386.07

>  <CASA->
1128.85

>  <DASA>
49.7096

>  <DCASA>
257.228

>  <FASA+>
0.417646

>  <FASA->
0.340074

>  <FASA_H>
0.735418

>  <FASA_P>
0.264582

>  <FCASA+>
2.16299

>  <FCASA->
1.76158

>  <VSA>
391.168

>  <TPSA>
86.37

>  <density>
0.751336

>  <vdw_area>
369.102

>  <vdw_vol>
500.996

>  <vsurf_A>
4.17757

>  <vsurf_CP>
0.113379

>  <vsurf_CW1>
2.65209

>  <vsurf_CW2>
2.05259

>  <vsurf_CW3>
1.30609

>  <vsurf_CW4>
0.584684

>  <vsurf_CW5>
0.284599

>  <vsurf_CW6>
0.119642

>  <vsurf_CW7>
0.0384556

>  <vsurf_CW8>
0.0189121

>  <vsurf_D1>
887

>  <vsurf_D2>
531.375

>  <vsurf_D3>
405.75

>  <vsurf_D4>
348.25

>  <vsurf_D5>
299.125

>  <vsurf_D6>
236.5

>  <vsurf_D7>
133.25

>  <vsurf_D8>
74.625

>  <vsurf_DD12>
0.707107

>  <vsurf_DD13>
1.87083

>  <vsurf_DD23>
1.22474

>  <vsurf_DW12>
0.707107

>  <vsurf_DW13>
0.707107

>  <vsurf_DW23>
1.41421

>  <vsurf_EDmin1>
-2.76208

>  <vsurf_EDmin2>
-2.70924

>  <vsurf_EDmin3>
-2.66242

>  <vsurf_EWmin1>
-8.65736

>  <vsurf_EWmin2>
-7.96373

>  <vsurf_EWmin3>
-7.78902

>  <vsurf_G>
1.35603

>  <vsurf_HB1>
329.375

>  <vsurf_HB2>
361.75

>  <vsurf_HB3>
325.5

>  <vsurf_HB4>
131.375

>  <vsurf_HB5>
51.875

>  <vsurf_HB6>
19.125

>  <vsurf_HB7>
7.25

>  <vsurf_HB8>
3.125

>  <vsurf_HL1>
0.141713

>  <vsurf_HL2>
0.0595836

>  <vsurf_ID1>
1.12749

>  <vsurf_ID2>
1.17809

>  <vsurf_ID3>
1.2816

>  <vsurf_ID4>
1.42413

>  <vsurf_ID5>
1.59639

>  <vsurf_ID6>
1.50811

>  <vsurf_ID7>
1.04691

>  <vsurf_ID8>
0.895353

>  <vsurf_IW1>
0.0714045

>  <vsurf_IW2>
0.89004

>  <vsurf_IW3>
1.61357

>  <vsurf_IW4>
2.46852

>  <vsurf_IW5>
2.97645

>  <vsurf_IW6>
3.74061

>  <vsurf_IW7>
5.50931

>  <vsurf_IW8>
5.87999

>  <vsurf_R>
1.43624

>  <vsurf_S>
581.727

>  <vsurf_V>
835.5

>  <vsurf_W1>
1394

>  <vsurf_W2>
808.5

>  <vsurf_W3>
409.5

>  <vsurf_W4>
145.375

>  <vsurf_W5>
57.5

>  <vsurf_W6>
20.75

>  <vsurf_W7>
7.25

>  <vsurf_W8>
3.125

>  <vsurf_Wp1>
1064.63

>  <vsurf_Wp2>
446.75

>  <vsurf_Wp3>
84

>  <vsurf_Wp4>
14

>  <vsurf_Wp5>
5.625

>  <vsurf_Wp6>
1.625

>  <vsurf_Wp7>
0

>  <vsurf_Wp8>
0

>  <dens>
1.05144

>  <glob>
0.0762644

>  <std_dim1>
4.51193

>  <std_dim2>
1.77823

>  <std_dim3>
1.24601

>  <vol>
358

>  <logP(o/w)>
1.55453

$$$$
D15.cdx
  MOE2008           3D

 45 48  0  0  0  0  0  0  0  0999 V2000
   -6.9570   17.9580    1.1410 C   0  0  0  0  0  0  0  0  0  0  0  0
   -7.8010   18.6020    0.9060 H   0  0  0  0  0  0  0  0  0  0  0  0
   -6.9220   17.2720    2.3440 C   0  0  0  0  0  0  0  0  0  0  0  0
   -7.7340   17.3730    3.0550 H   0  0  0  0  0  0  0  0  0  0  0  0
   -5.8270   16.4600    2.6120 C   0  0  0  0  0  0  0  0  0  0  0  0
   -4.8340   16.3920    1.6360 C   0  0  0  0  0  0  0  0  0  0  0  0
   -4.9470   17.1130    0.4490 C   0  0  0  0  0  0  0  0  0  0  0  0
   -6.0090   17.9120    0.1820 N   0  0  0  0  0  0  0  0  0  0  0  0
   -3.6480   15.7060    1.5830 N   0  0  0  0  0  0  0  0  0  0  0  0
   -3.3010   15.0980    2.3140 H   0  0  0  0  0  0  0  0  0  0  0  0
   -3.0110   15.9670    0.3980 C   0  0  0  0  0  0  0  0  0  0  0  0
   -2.0560   15.5020    0.1840 H   0  0  0  0  0  0  0  0  0  0  0  0
   -3.7900   16.8460   -0.3370 C   0  0  0  0  0  0  0  0  0  0  0  0
   -3.4560   17.3830   -1.6480 C   0  0  0  0  0  0  0  0  0  0  0  0
   -2.1110   17.0420   -2.2650 C   0  0  0  0  0  0  0  0  0  0  0  0
   -1.0580   17.9080   -1.9780 N   0  0  0  0  0  0  0  0  0  0  0  0
    0.2860   17.5870   -2.4580 C   0  0  0  0  0  0  0  0  0  0  0  0
    0.3680   16.5160   -2.6730 H   0  0  0  0  0  0  0  0  0  0  0  0
    0.4220   18.1250   -3.4040 H   0  0  0  0  0  0  0  0  0  0  0  0
    1.3590   18.0060   -1.4490 C   0  0  0  0  0  0  0  0  0  0  0  0
    2.3560   17.8000   -1.8540 H   0  0  0  0  0  0  0  0  0  0  0  0
    1.2370   17.4270   -0.5270 H   0  0  0  0  0  0  0  0  0  0  0  0
    1.2620   19.4270   -1.0780 N   0  0  0  0  0  0  0  0  0  0  0  0
   -0.0160   20.0930   -1.3450 C   0  0  0  0  0  0  0  0  0  0  0  0
   -0.1400   20.9570   -0.6830 H   0  0  0  0  0  0  0  0  0  0  0  0
    0.0400   20.4740   -2.3730 H   0  0  0  0  0  0  0  0  0  0  0  0
   -1.2110   19.1460   -1.2020 C   0  0  0  0  0  0  0  0  0  0  0  0
   -2.1310   19.6560   -1.5030 H   0  0  0  0  0  0  0  0  0  0  0  0
   -1.3220   18.8470   -0.1530 H   0  0  0  0  0  0  0  0  0  0  0  0
    2.3010   20.1760   -0.5300 C   0  0  0  0  0  0  0  0  0  0  0  0
    3.5500   19.4820   -0.1420 C   0  0  0  0  0  0  0  0  0  0  0  0
   -4.1880   18.1230   -2.2990 O   0  0  0  0  0  0  0  0  0  0  0  0
   -2.0340   16.0200   -2.9380 O   0  0  0  0  0  0  0  0  0  0  0  0
    2.2610   21.3910   -0.3550 O   0  0  0  0  0  0  0  0  0  0  0  0
    4.7490   19.8670   -0.7480 C   0  0  0  0  0  0  0  0  0  0  0  0
    4.7580   20.6480   -1.5040 H   0  0  0  0  0  0  0  0  0  0  0  0
    5.9400   19.2430   -0.3760 C   0  0  0  0  0  0  0  0  0  0  0  0
    6.8760   19.5340   -0.8450 H   0  0  0  0  0  0  0  0  0  0  0  0
    5.9300   18.2510    0.6070 C   0  0  0  0  0  0  0  0  0  0  0  0
    6.8610   17.7690    0.8980 H   0  0  0  0  0  0  0  0  0  0  0  0
    4.7330   17.8840    1.2260 C   0  0  0  0  0  0  0  0  0  0  0  0
    4.7370   17.1220    2.0010 H   0  0  0  0  0  0  0  0  0  0  0  0
    3.5390   18.5050    0.8590 C   0  0  0  0  0  0  0  0  0  0  0  0
    2.6140   18.2340    1.3610 H   0  0  0  0  0  0  0  0  0  0  0  0
   -5.7210   15.5910    4.0890 Cl  0  0  0  0  0  0  0  0  0  0  0  0
  1  2  1  0  0  0  0
  1  3  1  0  0  0  0
  1  8  2  0  0  0  0
  3  4  1  0  0  0  0
  3  5  2  0  0  0  0
  5  6  1  0  0  0  0
  5 45  1  0  0  0  0
  6  7  2  0  0  0  0
  6  9  1  0  0  0  0
  7  8  1  0  0  0  0
  7 13  1  0  0  0  0
  9 10  1  0  0  0  0
  9 11  1  0  0  0  0
 11 12  1  0  0  0  0
 11 13  2  0  0  0  0
 13 14  1  0  0  0  0
 14 15  1  0  0  0  0
 14 32  2  0  0  0  0
 15 16  1  0  0  0  0
 15 33  2  0  0  0  0
 16 17  1  0  0  0  0
 16 27  1  0  0  0  0
 17 18  1  0  0  0  0
 17 19  1  0  0  0  0
 17 20  1  0  0  0  0
 20 21  1  0  0  0  0
 20 22  1  0  0  0  0
 20 23  1  0  0  0  0
 23 24  1  0  0  0  0
 23 30  1  0  0  0  0
 24 25  1  0  0  0  0
 24 26  1  0  0  0  0
 24 27  1  0  0  0  0
 27 28  1  0  0  0  0
 27 29  1  0  0  0  0
 30 31  1  0  0  0  0
 30 34  2  0  0  0  0
 31 35  1  0  0  0  0
 31 43  2  0  0  0  0
 35 36  1  0  0  0  0
 35 37  2  0  0  0  0
 37 38  1  0  0  0  0
 37 39  1  0  0  0  0
 39 40  1  0  0  0  0
 39 41  2  0  0  0  0
 41 42  1  0  0  0  0
 41 43  1  0  0  0  0
 43 44  1  0  0  0  0
M  END
>  <Activity>
7.7351

>  <AM1_dipole>
5.74248

>  <AM1_E>
-114266

>  <AM1_Eele>
-831239

>  <AM1_HF>
8.84529

>  <AM1_HOMO>
-9.45652

>  <AM1_IP>
9.45652

>  <AM1_LUMO>
-0.81355

>  <diameter>
15

>  <petitjean>
0.466667

>  <petitjeanSC>
0.875

>  <radius>
8

>  <VDistEq>
3.68215

>  <VDistMa>
9.29035

>  <weinerPath>
2228

>  <weinerPol>
47

>  <BCUT_PEOE_0>
-2.71185

>  <BCUT_PEOE_1>
-0.639599

>  <BCUT_PEOE_2>
0.647296

>  <BCUT_PEOE_3>
2.65034

>  <BCUT_SLOGP_0>
-2.86001

>  <BCUT_SLOGP_1>
-0.547459

>  <BCUT_SLOGP_2>
0.81066

>  <BCUT_SLOGP_3>
2.50313

>  <BCUT_SMR_0>
-2.43203

>  <BCUT_SMR_1>
-0.446538

>  <BCUT_SMR_2>
0.857157

>  <BCUT_SMR_3>
2.92016

>  <GCUT_PEOE_0>
-0.85314

>  <GCUT_PEOE_1>
-0.419118

>  <GCUT_PEOE_2>
0.0793747

>  <GCUT_PEOE_3>
2.63484

>  <GCUT_SLOGP_0>
-0.976495

>  <GCUT_SLOGP_1>
-0.318264

>  <GCUT_SLOGP_2>
0.187495

>  <GCUT_SLOGP_3>
2.60483

>  <GCUT_SMR_0>
-0.508905

>  <GCUT_SMR_1>
-0.210084

>  <GCUT_SMR_2>
0.259503

>  <GCUT_SMR_3>
2.90403

>  <a_aro>
15

>  <a_count>
45

>  <a_IC>
78.4531

>  <a_ICM>
1.7434

>  <a_nH>
17

>  <b_1rotN>
5

>  <b_1rotR>
0.16129

>  <b_ar>
16

>  <b_count>
48

>  <b_double>
3

>  <b_rotN>
5

>  <b_rotR>
0.16129

>  <b_single>
29

>  <b_triple>
0

>  <chi0v>
15.6475

>  <chi0v_C>
11.4472

>  <chi1v>
9.23329

>  <chi1v_C>
5.32137

>  <chiral>
0

>  <chiral_u>
0

>  <nmol>
1

>  <reactive>
0

>  <rings>
4

>  <Weight>
396.834

>  <a_heavy>
28

>  <a_nB>
0

>  <a_nBr>
0

>  <a_nC>
20

>  <a_nCl>
1

>  <a_nF>
0

>  <a_nI>
0

>  <a_nN>
4

>  <a_nO>
3

>  <a_nP>
0

>  <a_nS>
0

>  <b_heavy>
31

>  <chi0>
19.673

>  <chi0_C>
13.1041

>  <chi1>
13.5586

>  <chi1_C>
7.13299

>  <FCharge>
0

>  <VAdjEq>
0.398935

>  <VAdjMa>
5.9542

>  <zagreb>
150

>  <balabanJ>
1.28268

>  <PEOE_PC+>
2.47718

>  <PEOE_PC->
-2.47718

>  <PEOE_RPC+>
0.119148

>  <PEOE_RPC->
0.144352

>  <PEOE_VSA+0>
88.4697

>  <PEOE_VSA+1>
81.674

>  <PEOE_VSA+2>
6.69955

>  <PEOE_VSA+3>
8.61901

>  <PEOE_VSA+4>
0

>  <PEOE_VSA+5>
34.3576

>  <PEOE_VSA+6>
0

>  <PEOE_VSA-0>
36.7647

>  <PEOE_VSA-1>
66.3467

>  <PEOE_VSA-2>
0

>  <PEOE_VSA-3>
0

>  <PEOE_VSA-4>
0

>  <PEOE_VSA-5>
46.3833

>  <PEOE_VSA-6>
0.136891

>  <PEOE_VSA_FHYD>
0.781087

>  <PEOE_VSA_FNEG>
0.40501

>  <PEOE_VSA_FPNEG>
0.125917

>  <PEOE_VSA_FPOL>
0.218913

>  <PEOE_VSA_FPOS>
0.59499

>  <PEOE_VSA_FPPOS>
0.0929962

>  <PEOE_VSA_HYD>
288.574

>  <PEOE_VSA_NEG>
149.632

>  <PEOE_VSA_PNEG>
46.5202

>  <PEOE_VSA_POL>
80.8778

>  <PEOE_VSA_POS>
219.82

>  <PEOE_VSA_PPOS>
34.3576

>  <PC+>
5.212

>  <PC->
-5.213

>  <Q_PC+>
5.212

>  <Q_PC->
-5.213

>  <Q_RPC+>
0.125863

>  <Q_RPC->
0.126607

>  <Q_VSA_FHYD>
0.551836

>  <Q_VSA_FNEG>
0.474078

>  <Q_VSA_FPNEG>
0.170873

>  <Q_VSA_FPOL>
0.448164

>  <Q_VSA_FPOS>
0.525922

>  <Q_VSA_FPPOS>
0.277291

>  <Q_VSA_HYD>
203.877

>  <Q_VSA_NEG>
175.149

>  <Q_VSA_PNEG>
63.1293

>  <Q_VSA_POL>
165.575

>  <Q_VSA_POS>
194.303

>  <Q_VSA_PPOS>
102.445

>  <RPC+>
0.125863

>  <RPC->
0.126607

>  <lip_acc>
7

>  <lip_don>
1

>  <lip_druglike>
1

>  <lip_violation>
0

>  <opr_brigid>
22

>  <opr_leadlike>
1

>  <opr_nring>
4

>  <opr_nrot>
5

>  <opr_violation>
0

>  <E>
86.7006

>  <E_ang>
6.54001

>  <E_ele>
24.4988

>  <E_nb>
70.0185

>  <E_oop>
0.0807365

>  <E_sol>
-24.791

>  <E_stb>
1.01428

>  <E_str>
4.79919

>  <E_strain>
0.00592462

>  <E_tor>
4.24783

>  <E_vdw>
45.5197

>  <E_rele>
0

>  <E_rnb>
0

>  <E_rsol>
0

>  <E_rvdw>
0

>  <Kier1>
21.2404

>  <Kier2>
9.42769

>  <Kier3>
4.54179

>  <KierA1>
15.3305

>  <KierA2>
6.71589

>  <KierA3>
3.20527

>  <KierFlex>
3.67708

>  <logS>
-3.47454

>  <MNDO_dipole>
6.02309

>  <MNDO_E>
-114039

>  <MNDO_Eele>
-823284

>  <MNDO_HF>
-12.9781

>  <MNDO_HOMO>
-9.54308

>  <MNDO_IP>
9.54308

>  <MNDO_LUMO>
-0.95062

>  <apol>
55.5215

>  <bpol>
27.8185

>  <mr>
10.6106

>  <dipole>
1.5393

>  <dipoleX>
0.711251

>  <dipoleY>
-0.870624

>  <dipoleZ>
1.05147

>  <pmi>
8764.76

>  <pmiX>
6342.56

>  <pmiY>
966.557

>  <pmiZ>
1455.64

>  <rgyr>
4.69965

>  <a_acc>
4

>  <a_acid>
0

>  <a_base>
0

>  <a_don>
1

>  <a_hyd>
18

>  <vsa_acc>
46.3833

>  <vsa_acid>
0

>  <vsa_base>
0

>  <vsa_don>
5.68258

>  <vsa_hyd>
268.566

>  <vsa_other>
34.3576

>  <vsa_pol>
52.0659

>  <PM3_dipole>
6.17876

>  <PM3_E>
-103241

>  <PM3_Eele>
-815180

>  <PM3_HF>
-24.4143

>  <PM3_HOMO>
-9.22646

>  <PM3_IP>
9.22646

>  <PM3_LUMO>
-0.88319

>  <SlogP>
2.3836

>  <SlogP_VSA0>
0

>  <SlogP_VSA1>
39.2393

>  <SlogP_VSA2>
40.6477

>  <SlogP_VSA3>
73.7583

>  <SlogP_VSA4>
54.0956

>  <SlogP_VSA5>
0

>  <SlogP_VSA6>
3.50061

>  <SlogP_VSA7>
144.576

>  <SlogP_VSA8>
0

>  <SlogP_VSA9>
39.1486

>  <SMR>
10.436

>  <SMR_VSA0>
71.5866

>  <SMR_VSA1>
23.0342

>  <SMR_VSA2>
16.7855

>  <SMR_VSA3>
9.87176

>  <SMR_VSA4>
4.28827

>  <SMR_VSA5>
140.288

>  <SMR_VSA6>
89.9635

>  <SMR_VSA7>
39.1486

>  <ASA>
636.213

>  <ASA+>
254.164

>  <ASA->
282.045

>  <ASA_H>
461.143

>  <ASA_P>
175.07

>  <CASA+>
1324.7

>  <CASA->
1470.3

>  <DASA>
27.8814

>  <DCASA>
145.6

>  <FASA+>
0.399495

>  <FASA->
0.443319

>  <FASA_H>
0.724825

>  <FASA_P>
0.275175

>  <FCASA+>
2.08217

>  <FCASA->
2.31102

>  <VSA>
389.329

>  <TPSA>
86.37

>  <density>
0.805718

>  <vdw_area>
369.451

>  <vdw_vol>
492.522

>  <vsurf_A>
4.20004

>  <vsurf_CP>
0.11207

>  <vsurf_CW1>
2.66586

>  <vsurf_CW2>
2.11476

>  <vsurf_CW3>
1.3195

>  <vsurf_CW4>
0.596391

>  <vsurf_CW5>
0.298826

>  <vsurf_CW6>
0.12075

>  <vsurf_CW7>
0.0355947

>  <vsurf_CW8>
0.020415

>  <vsurf_D1>
916.875

>  <vsurf_D2>
541.5

>  <vsurf_D3>
410

>  <vsurf_D4>
353.875

>  <vsurf_D5>
306.5

>  <vsurf_D6>
254.125

>  <vsurf_D7>
148.125

>  <vsurf_D8>
83

>  <vsurf_DD12>
0.5

>  <vsurf_DD13>
3.53553

>  <vsurf_DD23>
3.84057

>  <vsurf_DW12>
1.22474

>  <vsurf_DW13>
0.5

>  <vsurf_DW23>
0.866025

>  <vsurf_EDmin1>
-2.92791

>  <vsurf_EDmin2>
-2.83796

>  <vsurf_EDmin3>
-2.82215

>  <vsurf_EWmin1>
-8.3156

>  <vsurf_EWmin2>
-8.1759

>  <vsurf_EWmin3>
-7.86606

>  <vsurf_G>
1.35227

>  <vsurf_HB1>
341

>  <vsurf_HB2>
374.625

>  <vsurf_HB3>
324.125

>  <vsurf_HB4>
133.375

>  <vsurf_HB5>
52.875

>  <vsurf_HB6>
20.5

>  <vsurf_HB7>
7.375

>  <vsurf_HB8>
3.75

>  <vsurf_HL1>
0.143598

>  <vsurf_HL2>
0.0621688

>  <vsurf_ID1>
1.10704

>  <vsurf_ID2>
1.08179

>  <vsurf_ID3>
1.16576

>  <vsurf_ID4>
1.32314

>  <vsurf_ID5>
1.43769

>  <vsurf_ID6>
1.43062

>  <vsurf_ID7>
0.882641

>  <vsurf_ID8>
0.707321

>  <vsurf_IW1>
0.168667

>  <vsurf_IW2>
0.928669

>  <vsurf_IW3>
1.65426

>  <vsurf_IW4>
2.56468

>  <vsurf_IW5>
3.05474

>  <vsurf_IW6>
4.02327

>  <vsurf_IW7>
5.65862

>  <vsurf_IW8>
6.01735

>  <vsurf_R>
1.43973

>  <vsurf_S>
579.709

>  <vsurf_V>
834.625

>  <vsurf_W1>
1422.63

>  <vsurf_W2>
830.5

>  <vsurf_W3>
416.75

>  <vsurf_W4>
148

>  <vsurf_W5>
58.875

>  <vsurf_W6>
22

>  <vsurf_W7>
7.375

>  <vsurf_W8>
3.75

>  <vsurf_Wp1>
1081.63

>  <vsurf_Wp2>
455.875

>  <vsurf_Wp3>
92.625

>  <vsurf_Wp4>
14.625

>  <vsurf_Wp5>
6

>  <vsurf_Wp6>
1.5

>  <vsurf_Wp7>
0

>  <vsurf_Wp8>
0

>  <dens>
1.11863

>  <glob>
0.0844695

>  <std_dim1>
4.22078

>  <std_dim2>
1.70486

>  <std_dim3>
1.22671

>  <vol>
354.75

>  <logP(o/w)>
1.84853

$$$$
D15.cdx
  MOE2008           3D

 49 52  0  0  0  0  0  0  0  0999 V2000
   -6.4930   14.9450    0.3020 C   0  0  0  0  0  0  0  0  0  0  0  0
   -7.3200   15.6410    0.1790 H   0  0  0  0  0  0  0  0  0  0  0  0
   -6.5500   13.9670    1.2870 C   0  0  0  0  0  0  0  0  0  0  0  0
   -7.4300   13.9220    1.9180 H   0  0  0  0  0  0  0  0  0  0  0  0
   -5.4830   13.0830    1.4350 C   0  0  0  0  0  0  0  0  0  0  0  0
   -4.4260   13.2750    0.5420 C   0  0  0  0  0  0  0  0  0  0  0  0
   -4.4390   14.2760   -0.4240 C   0  0  0  0  0  0  0  0  0  0  0  0
   -5.4760   15.1380   -0.5620 N   0  0  0  0  0  0  0  0  0  0  0  0
   -3.2380   12.6010    0.4100 N   0  0  0  0  0  0  0  0  0  0  0  0
   -2.9600   11.8200    0.9910 H   0  0  0  0  0  0  0  0  0  0  0  0
   -2.5040   13.1420   -0.6120 C   0  0  0  0  0  0  0  0  0  0  0  0
   -1.5350   12.7260   -0.8610 H   0  0  0  0  0  0  0  0  0  0  0  0
   -3.2210   14.1960   -1.1560 C   0  0  0  0  0  0  0  0  0  0  0  0
   -2.7750   15.0410   -2.2530 C   0  0  0  0  0  0  0  0  0  0  0  0
   -1.3850   14.8260   -2.8240 C   0  0  0  0  0  0  0  0  0  0  0  0
   -0.3530   15.5530   -2.2370 N   0  0  0  0  0  0  0  0  0  0  0  0
    1.0270   15.2980   -2.6490 C   0  0  0  0  0  0  0  0  0  0  0  0
    1.1110   14.3080   -3.1090 H   0  0  0  0  0  0  0  0  0  0  0  0
    1.2720   16.0420   -3.4160 H   0  0  0  0  0  0  0  0  0  0  0  0
    1.9950   15.4140   -1.4670 C   0  0  0  0  0  0  0  0  0  0  0  0
    3.0250   15.2650   -1.8090 H   0  0  0  0  0  0  0  0  0  0  0  0
    1.7620   14.6380   -0.7300 H   0  0  0  0  0  0  0  0  0  0  0  0
    1.8880   16.7080   -0.7750 N   0  0  0  0  0  0  0  0  0  0  0  0
    0.6600   17.4760   -0.9980 C   0  0  0  0  0  0  0  0  0  0  0  0
    0.4850   18.1630   -0.1620 H   0  0  0  0  0  0  0  0  0  0  0  0
    0.8320   18.0870   -1.8920 H   0  0  0  0  0  0  0  0  0  0  0  0
   -0.5620   16.5770   -1.2040 C   0  0  0  0  0  0  0  0  0  0  0  0
   -1.4360   17.1830   -1.4620 H   0  0  0  0  0  0  0  0  0  0  0  0
   -0.7890   16.0420   -0.2740 H   0  0  0  0  0  0  0  0  0  0  0  0
    2.8770   17.2550    0.0420 C   0  0  0  0  0  0  0  0  0  0  0  0
    4.0550   16.4250    0.3830 C   0  0  0  0  0  0  0  0  0  0  0  0
   -3.4420   15.9450   -2.7480 O   0  0  0  0  0  0  0  0  0  0  0  0
   -1.2600   14.0010   -3.7220 O   0  0  0  0  0  0  0  0  0  0  0  0
    2.8460   18.3950    0.4960 O   0  0  0  0  0  0  0  0  0  0  0  0
    5.3260   16.8790    0.0190 C   0  0  0  0  0  0  0  0  0  0  0  0
    5.4420   17.8150   -0.5220 H   0  0  0  0  0  0  0  0  0  0  0  0
    6.4490   16.1250    0.3570 C   0  0  0  0  0  0  0  0  0  0  0  0
    7.4410   16.4700    0.0750 H   0  0  0  0  0  0  0  0  0  0  0  0
    6.3010   14.9320    1.0670 C   0  0  0  0  0  0  0  0  0  0  0  0
    7.1790   14.3480    1.3330 H   0  0  0  0  0  0  0  0  0  0  0  0
    5.0310   14.4920    1.4480 C   0  0  0  0  0  0  0  0  0  0  0  0
    4.9250   13.5700    2.0140 H   0  0  0  0  0  0  0  0  0  0  0  0
    3.9030   15.2420    1.1130 C   0  0  0  0  0  0  0  0  0  0  0  0
    2.9190   14.9090    1.4330 H   0  0  0  0  0  0  0  0  0  0  0  0
   -5.3810   12.0770    2.3500 O   0  0  0  0  0  0  0  0  0  0  0  0
   -6.4900   11.8880    3.2200 C   0  0  0  0  0  0  0  0  0  0  0  0
   -6.2600   11.0420    3.8750 H   0  0  0  0  0  0  0  0  0  0  0  0
   -7.3950   11.6370    2.6570 H   0  0  0  0  0  0  0  0  0  0  0  0
   -6.6490   12.7660    3.8530 H   0  0  0  0  0  0  0  0  0  0  0  0
  1  2  1  0  0  0  0
  1  3  1  0  0  0  0
  1  8  2  0  0  0  0
  3  4  1  0  0  0  0
  3  5  2  0  0  0  0
  5  6  1  0  0  0  0
  5 45  1  0  0  0  0
  6  7  2  0  0  0  0
  6  9  1  0  0  0  0
  7  8  1  0  0  0  0
  7 13  1  0  0  0  0
  9 10  1  0  0  0  0
  9 11  1  0  0  0  0
 11 12  1  0  0  0  0
 11 13  2  0  0  0  0
 13 14  1  0  0  0  0
 14 15  1  0  0  0  0
 14 32  2  0  0  0  0
 15 16  1  0  0  0  0
 15 33  2  0  0  0  0
 16 17  1  0  0  0  0
 16 27  1  0  0  0  0
 17 18  1  0  0  0  0
 17 19  1  0  0  0  0
 17 20  1  0  0  0  0
 20 21  1  0  0  0  0
 20 22  1  0  0  0  0
 20 23  1  0  0  0  0
 23 24  1  0  0  0  0
 23 30  1  0  0  0  0
 24 25  1  0  0  0  0
 24 26  1  0  0  0  0
 24 27  1  0  0  0  0
 27 28  1  0  0  0  0
 27 29  1  0  0  0  0
 30 31  1  0  0  0  0
 30 34  2  0  0  0  0
 31 35  1  0  0  0  0
 31 43  2  0  0  0  0
 35 36  1  0  0  0  0
 35 37  2  0  0  0  0
 37 38  1  0  0  0  0
 37 39  1  0  0  0  0
 39 40  1  0  0  0  0
 39 41  2  0  0  0  0
 41 42  1  0  0  0  0
 41 43  1  0  0  0  0
 43 44  1  0  0  0  0
 45 46  1  0  0  0  0
 46 47  1  0  0  0  0
 46 48  1  0  0  0  0
 46 49  1  0  0  0  0
M  END
>  <Activity>
7.91

>  <AM1_dipole>
6.79979

>  <AM1_E>
-116936

>  <AM1_Eele>
-883150

>  <AM1_HF>
-22.8679

>  <AM1_HOMO>
-9.16801

>  <AM1_IP>
9.16801

>  <AM1_LUMO>
-0.5283

>  <diameter>
16

>  <petitjean>
0.5

>  <petitjeanSC>
1

>  <radius>
8

>  <VDistEq>
3.73149

>  <VDistMa>
9.39237

>  <weinerPath>
2461

>  <weinerPol>
49

>  <BCUT_PEOE_0>
-2.71185

>  <BCUT_PEOE_1>
-0.635254

>  <BCUT_PEOE_2>
0.585528

>  <BCUT_PEOE_3>
2.65035

>  <BCUT_SLOGP_0>
-2.86001

>  <BCUT_SLOGP_1>
-0.53808

>  <BCUT_SLOGP_2>
0.664252

>  <BCUT_SLOGP_3>
2.50326

>  <BCUT_SMR_0>
-2.43203

>  <BCUT_SMR_1>
-0.427636

>  <BCUT_SMR_2>
0.757431

>  <BCUT_SMR_3>
2.92017

>  <GCUT_PEOE_0>
-0.851231

>  <GCUT_PEOE_1>
-0.403738

>  <GCUT_PEOE_2>
0.0738691

>  <GCUT_PEOE_3>
2.65762

>  <GCUT_SLOGP_0>
-0.976501

>  <GCUT_SLOGP_1>
-0.350204

>  <GCUT_SLOGP_2>
0.137693

>  <GCUT_SLOGP_3>
2.6337

>  <GCUT_SMR_0>
-0.508917

>  <GCUT_SMR_1>
-0.216057

>  <GCUT_SMR_2>
0.193051

>  <GCUT_SMR_3>
2.92508

>  <a_aro>
15

>  <a_count>
49

>  <a_IC>
80.4436

>  <a_ICM>
1.64171

>  <a_nH>
20

>  <b_1rotN>
6

>  <b_1rotR>
0.1875

>  <b_ar>
16

>  <b_count>
52

>  <b_double>
3

>  <b_rotN>
6

>  <b_rotR>
0.1875

>  <b_single>
33

>  <b_triple>
0

>  <chi0v>
15.9219

>  <chi0v_C>
12.4472

>  <chi1v>
9.27872

>  <chi1v_C>
5.32137

>  <chiral>
0

>  <chiral_u>
0

>  <nmol>
1

>  <reactive>
0

>  <rings>
4

>  <Weight>
392.415

>  <a_heavy>
29

>  <a_nB>
0

>  <a_nBr>
0

>  <a_nC>
21

>  <a_nCl>
0

>  <a_nF>
0

>  <a_nI>
0

>  <a_nN>
4

>  <a_nO>
4

>  <a_nP>
0

>  <a_nS>
0

>  <b_heavy>
32

>  <chi0>
20.3801

>  <chi0_C>
14.1041

>  <chi1>
14.0966

>  <chi1_C>
7.13299

>  <FCharge>
0

>  <VAdjEq>
0.388286

>  <VAdjMa>
6

>  <zagreb>
154

>  <balabanJ>
1.28524

>  <PEOE_PC+>
2.72897

>  <PEOE_PC->
-2.72897

>  <PEOE_RPC+>
0.108155

>  <PEOE_RPC->
0.130715

>  <PEOE_VSA+0>
113.467

>  <PEOE_VSA+1>
89.9504

>  <PEOE_VSA+2>
15.1581

>  <PEOE_VSA+3>
8.61901

>  <PEOE_VSA+4>
0

>  <PEOE_VSA+5>
34.3576

>  <PEOE_VSA+6>
0

>  <PEOE_VSA-0>
36.7647

>  <PEOE_VSA-1>
36.7647

>  <PEOE_VSA-2>
0

>  <PEOE_VSA-3>
0

>  <PEOE_VSA-4>
0

>  <PEOE_VSA-5>
46.3833

>  <PEOE_VSA-6>
2.64065

>  <PEOE_VSA_FHYD>
0.78292

>  <PEOE_VSA_FNEG>
0.319062

>  <PEOE_VSA_FPNEG>
0.127631

>  <PEOE_VSA_FPOL>
0.21708

>  <PEOE_VSA_FPOS>
0.680938

>  <PEOE_VSA_FPPOS>
0.0894482

>  <PEOE_VSA_HYD>
300.724

>  <PEOE_VSA_NEG>
122.553

>  <PEOE_VSA_PNEG>
49.024

>  <PEOE_VSA_POL>
83.3816

>  <PEOE_VSA_POS>
261.552

>  <PEOE_VSA_PPOS>
34.3576

>  <PC+>
5.397

>  <PC->
-5.399

>  <Q_PC+>
5.397

>  <Q_PC->
-5.399

>  <Q_RPC+>
0.121549

>  <Q_RPC->
0.122245

>  <Q_VSA_FHYD>
0.497336

>  <Q_VSA_FNEG>
0.385494

>  <Q_VSA_FPNEG>
0.170872

>  <Q_VSA_FPOL>
0.502664

>  <Q_VSA_FPOS>
0.614506

>  <Q_VSA_FPPOS>
0.331792

>  <Q_VSA_HYD>
191.03

>  <Q_VSA_NEG>
148.071

>  <Q_VSA_PNEG>
65.633

>  <Q_VSA_POL>
193.076

>  <Q_VSA_POS>
236.035

>  <Q_VSA_PPOS>
127.443

>  <RPC+>
0.121549

>  <RPC->
0.122245

>  <lip_acc>
8

>  <lip_don>
1

>  <lip_druglike>
1

>  <lip_violation>
0

>  <opr_brigid>
22

>  <opr_leadlike>
1

>  <opr_nring>
4

>  <opr_nrot>
6

>  <opr_violation>
0

>  <E>
97.5085

>  <E_ang>
12.5636

>  <E_ele>
23.8341

>  <E_nb>
74.8751

>  <E_oop>
0.0935074

>  <E_sol>
-23.3707

>  <E_stb>
0.698789

>  <E_str>
4.9423

>  <E_strain>
0.00480169

>  <E_tor>
4.33514

>  <E_vdw>
51.041

>  <E_rele>
0

>  <E_rnb>
-1.42109e-014

>  <E_rsol>
-1.42109e-014

>  <E_rvdw>
0

>  <Kier1>
22.2031

>  <Kier2>
10.08

>  <Kier3>
4.76896

>  <KierA1>
15.367

>  <KierA2>
6.87693

>  <KierA3>
3.21916

>  <KierFlex>
3.64405

>  <logS>
-2.79063

>  <MNDO_dipole>
7.48084

>  <MNDO_E>
-117220

>  <MNDO_Eele>
-876674

>  <MNDO_HF>
-46.8994

>  <MNDO_HOMO>
-9.15699

>  <MNDO_IP>
9.15699

>  <MNDO_LUMO>
-0.57692

>  <apol>
57.9039

>  <bpol>
32.5941

>  <mr>
10.7532

>  <dipole>
1.83714

>  <dipoleX>
0.284858

>  <dipoleY>
-1.32105

>  <dipoleZ>
1.2445

>  <pmi>
8685.88

>  <pmiX>
6489.64

>  <pmiY>
1085.15

>  <pmiZ>
1111.09

>  <rgyr>
4.70472

>  <a_acc>
5

>  <a_acid>
0

>  <a_base>
0

>  <a_don>
1

>  <a_hyd>
18

>  <vsa_acc>
48.8871

>  <vsa_acid>
0

>  <vsa_base>
0

>  <vsa_don>
5.68258

>  <vsa_hyd>
278.581

>  <vsa_other>
34.3576

>  <vsa_pol>
54.5697

>  <PM3_dipole>
7.40037

>  <PM3_E>
-106505

>  <PM3_Eele>
-870194

>  <PM3_HF>
-60.3092

>  <PM3_HOMO>
-8.98479

>  <PM3_IP>
8.98479

>  <PM3_LUMO>
-0.6152

>  <SlogP>
1.7388

>  <SlogP_VSA0>
10.9999

>  <SlogP_VSA1>
39.2393

>  <SlogP_VSA2>
40.6477

>  <SlogP_VSA3>
73.7583

>  <SlogP_VSA4>
54.0956

>  <SlogP_VSA5>
35.3839

>  <SlogP_VSA6>
0

>  <SlogP_VSA7>
144.576

>  <SlogP_VSA8>
0

>  <SlogP_VSA9>
5.24343

>  <SMR>
10.5902

>  <SMR_VSA0>
71.5866

>  <SMR_VSA1>
34.034

>  <SMR_VSA2>
16.7855

>  <SMR_VSA3>
11.6146

>  <SMR_VSA4>
4.28827

>  <SMR_VSA5>
140.288

>  <SMR_VSA6>
89.9635

>  <SMR_VSA7>
35.3839

>  <ASA>
655.465

>  <ASA+>
281.131

>  <ASA->
217.77

>  <ASA_H>
440.542

>  <ASA_P>
214.923

>  <CASA+>
1517.26

>  <CASA->
1175.74

>  <DASA>
63.3609

>  <DCASA>
341.523

>  <FASA+>
0.428903

>  <FASA->
0.332237

>  <FASA_H>
0.672106

>  <FASA_P>
0.327894

>  <FCASA+>
2.31479

>  <FCASA->
1.79375

>  <VSA>
401.89

>  <TPSA>
95.6

>  <density>
0.766949

>  <vdw_area>
384.106

>  <vdw_vol>
511.657

>  <vsurf_A>
3.42236

>  <vsurf_CP>
0.0967447

>  <vsurf_CW1>
2.64481

>  <vsurf_CW2>
2.05278

>  <vsurf_CW3>
1.32839

>  <vsurf_CW4>
0.631977

>  <vsurf_CW5>
0.328126

>  <vsurf_CW6>
0.145978

>  <vsurf_CW7>
0.0487567

>  <vsurf_CW8>
0.0191119

>  <vsurf_D1>
890.5

>  <vsurf_D2>
537.75

>  <vsurf_D3>
407.375

>  <vsurf_D4>
351.875

>  <vsurf_D5>
304.5

>  <vsurf_D6>
235.125

>  <vsurf_D7>
142.625

>  <vsurf_D8>
78.875

>  <vsurf_DD12>
0.5

>  <vsurf_DD13>
4.06202

>  <vsurf_DD23>
3.77492

>  <vsurf_DW12>
1.22474

>  <vsurf_DW13>
0.707107

>  <vsurf_DW23>
0.707107

>  <vsurf_EDmin1>
-2.94711

>  <vsurf_EDmin2>
-2.8979

>  <vsurf_EDmin3>
-2.80928

>  <vsurf_EWmin1>
-8.42299

>  <vsurf_EWmin2>
-8.3113

>  <vsurf_EWmin3>
-8.2085

>  <vsurf_G>
1.36298

>  <vsurf_HB1>
342.375

>  <vsurf_HB2>
390.375

>  <vsurf_HB3>
347.375

>  <vsurf_HB4>
148.125

>  <vsurf_HB5>
63.5

>  <vsurf_HB6>
25

>  <vsurf_HB7>
9.125

>  <vsurf_HB8>
3.125

>  <vsurf_HL1>
0.170298

>  <vsurf_HL2>
0.0753108

>  <vsurf_ID1>
1.08222

>  <vsurf_ID2>
1.08789

>  <vsurf_ID3>
1.24641

>  <vsurf_ID4>
1.40383

>  <vsurf_ID5>
1.52727

>  <vsurf_ID6>
1.37324

>  <vsurf_ID7>
0.763372

>  <vsurf_ID8>
0.639841

>  <vsurf_IW1>
0.106067

>  <vsurf_IW2>
0.827107

>  <vsurf_IW3>
1.39366

>  <vsurf_IW4>
1.99664

>  <vsurf_IW5>
2.33147

>  <vsurf_IW6>
3.05338

>  <vsurf_IW7>
4.39289

>  <vsurf_IW8>
5.81416

>  <vsurf_R>
1.44177

>  <vsurf_S>
595.275

>  <vsurf_V>
858.25

>  <vsurf_W1>
1426

>  <vsurf_W2>
844.375

>  <vsurf_W3>
436.25

>  <vsurf_W4>
163.375

>  <vsurf_W5>
69.375

>  <vsurf_W6>
26.5

>  <vsurf_W7>
9.125

>  <vsurf_W8>
3.125

>  <vsurf_Wp1>
1083.63

>  <vsurf_Wp2>
454

>  <vsurf_Wp3>
88.875

>  <vsurf_Wp4>
15.25

>  <vsurf_Wp5>
5.875

>  <vsurf_Wp6>
1.5

>  <vsurf_Wp7>
0

>  <vsurf_Wp8>
0

>  <dens>
1.07548

>  <glob>
0.0699791

>  <std_dim1>
4.51181

>  <std_dim2>
1.943

>  <std_dim3>
1.19353

>  <vol>
364.875

>  <logP(o/w)>
1.21253

$$$$
D15.cdx
  MOE2008           3D

 54 58  0  0  0  0  0  0  0  0999 V2000
   -5.9730   11.4720   -1.4050 C   0  0  0  0  0  0  0  0  0  0  0  0
   -6.7100   12.1790   -1.7800 H   0  0  0  0  0  0  0  0  0  0  0  0
   -6.0710   10.1250   -1.7370 C   0  0  0  0  0  0  0  0  0  0  0  0
   -6.8920    9.8180   -2.3760 H   0  0  0  0  0  0  0  0  0  0  0  0
   -5.1240    9.2050   -1.2600 C   0  0  0  0  0  0  0  0  0  0  0  0
   -4.1270    9.7960   -0.4590 C   0  0  0  0  0  0  0  0  0  0  0  0
   -4.0940   11.1550   -0.1610 C   0  0  0  0  0  0  0  0  0  0  0  0
   -5.0200   12.0240   -0.6320 N   0  0  0  0  0  0  0  0  0  0  0  0
   -3.0390    9.2320    0.1680 N   0  0  0  0  0  0  0  0  0  0  0  0
   -2.8330    8.2400    0.1030 H   0  0  0  0  0  0  0  0  0  0  0  0
   -2.3300   10.1830    0.8460 C   0  0  0  0  0  0  0  0  0  0  0  0
   -1.4420    9.9060    1.4020 H   0  0  0  0  0  0  0  0  0  0  0  0
   -2.9650   11.4020    0.6730 C   0  0  0  0  0  0  0  0  0  0  0  0
   -2.5310   12.6680    1.2400 C   0  0  0  0  0  0  0  0  0  0  0  0
   -1.1940   12.7370    1.9580 C   0  0  0  0  0  0  0  0  0  0  0  0
   -0.1050   13.1780    1.2100 N   0  0  0  0  0  0  0  0  0  0  0  0
    1.2260   13.1720    1.8170 C   0  0  0  0  0  0  0  0  0  0  0  0
    1.3770   14.1650    2.2580 H   0  0  0  0  0  0  0  0  0  0  0  0
    1.2680   12.4390    2.6300 H   0  0  0  0  0  0  0  0  0  0  0  0
    2.3200   12.8790    0.7860 C   0  0  0  0  0  0  0  0  0  0  0  0
    2.1800   11.8700    0.3830 H   0  0  0  0  0  0  0  0  0  0  0  0
    3.3050   12.9250    1.2620 H   0  0  0  0  0  0  0  0  0  0  0  0
    2.2790   13.8060   -0.3570 N   0  0  0  0  0  0  0  0  0  0  0  0
    1.0080   14.4920   -0.6030 C   0  0  0  0  0  0  0  0  0  0  0  0
    1.0410   15.4260   -0.0290 H   0  0  0  0  0  0  0  0  0  0  0  0
    0.9240   14.7610   -1.6620 H   0  0  0  0  0  0  0  0  0  0  0  0
   -0.2040   13.6580   -0.1750 C   0  0  0  0  0  0  0  0  0  0  0  0
   -0.2870   12.7670   -0.8090 H   0  0  0  0  0  0  0  0  0  0  0  0
   -1.1190   14.2440   -0.3010 H   0  0  0  0  0  0  0  0  0  0  0  0
    3.3600   14.0920   -1.1890 C   0  0  0  0  0  0  0  0  0  0  0  0
    4.5960   13.2890   -1.0460 C   0  0  0  0  0  0  0  0  0  0  0  0
   -3.1720   13.7120    1.1710 O   0  0  0  0  0  0  0  0  0  0  0  0
   -1.1550   12.3710    3.1270 O   0  0  0  0  0  0  0  0  0  0  0  0
    3.3630   14.9790   -2.0370 O   0  0  0  0  0  0  0  0  0  0  0  0
    4.5760   11.9080   -1.2680 C   0  0  0  0  0  0  0  0  0  0  0  0
    3.6530   11.4030   -1.5410 H   0  0  0  0  0  0  0  0  0  0  0  0
    5.7590   11.1770   -1.1530 C   0  0  0  0  0  0  0  0  0  0  0  0
    5.7550   10.1030   -1.3210 H   0  0  0  0  0  0  0  0  0  0  0  0
    6.9530   11.8260   -0.8320 C   0  0  0  0  0  0  0  0  0  0  0  0
    7.8740   11.2540   -0.7460 H   0  0  0  0  0  0  0  0  0  0  0  0
    6.9720   13.2080   -0.6340 C   0  0  0  0  0  0  0  0  0  0  0  0
    7.9070   13.7090   -0.3980 H   0  0  0  0  0  0  0  0  0  0  0  0
    5.7940   13.9450   -0.7480 C   0  0  0  0  0  0  0  0  0  0  0  0
    5.8110   15.0230   -0.6060 H   0  0  0  0  0  0  0  0  0  0  0  0
   -5.1260    7.7510   -1.5400 C   0  0  0  0  0  0  0  0  0  0  0  0
   -6.1660    7.0920   -2.1980 C   0  0  0  0  0  0  0  0  0  0  0  0
   -7.0510    7.6130   -2.5440 H   0  0  0  0  0  0  0  0  0  0  0  0
   -6.0790    5.7160   -2.4140 C   0  0  0  0  0  0  0  0  0  0  0  0
   -6.8820    5.1910   -2.9240 H   0  0  0  0  0  0  0  0  0  0  0  0
   -4.9630    5.0210   -1.9710 C   0  0  0  0  0  0  0  0  0  0  0  0
   -4.8700    3.9520   -2.1260 H   0  0  0  0  0  0  0  0  0  0  0  0
   -3.9730    5.7360   -1.3250 C   0  0  0  0  0  0  0  0  0  0  0  0
   -3.0790    5.2430   -0.9560 H   0  0  0  0  0  0  0  0  0  0  0  0
   -4.0280    7.0680   -1.1010 N   0  0  0  0  0  0  0  0  0  0  0  0
  1  2  1  0  0  0  0
  1  3  1  0  0  0  0
  1  8  2  0  0  0  0
  3  4  1  0  0  0  0
  3  5  2  0  0  0  0
  5  6  1  0  0  0  0
  5 45  1  0  0  0  0
  6  7  2  0  0  0  0
  6  9  1  0  0  0  0
  7  8  1  0  0  0  0
  7 13  1  0  0  0  0
  9 10  1  0  0  0  0
  9 11  1  0  0  0  0
 11 12  1  0  0  0  0
 11 13  2  0  0  0  0
 13 14  1  0  0  0  0
 14 15  1  0  0  0  0
 14 32  2  0  0  0  0
 15 16  1  0  0  0  0
 15 33  2  0  0  0  0
 16 17  1  0  0  0  0
 16 27  1  0  0  0  0
 17 18  1  0  0  0  0
 17 19  1  0  0  0  0
 17 20  1  0  0  0  0
 20 21  1  0  0  0  0
 20 22  1  0  0  0  0
 20 23  1  0  0  0  0
 23 24  1  0  0  0  0
 23 30  1  0  0  0  0
 24 25  1  0  0  0  0
 24 26  1  0  0  0  0
 24 27  1  0  0  0  0
 27 28  1  0  0  0  0
 27 29  1  0  0  0  0
 30 31  1  0  0  0  0
 30 34  2  0  0  0  0
 31 35  1  0  0  0  0
 31 43  2  0  0  0  0
 35 36  1  0  0  0  0
 35 37  2  0  0  0  0
 37 38  1  0  0  0  0
 37 39  1  0  0  0  0
 39 40  1  0  0  0  0
 39 41  2  0  0  0  0
 41 42  1  0  0  0  0
 41 43  1  0  0  0  0
 43 44  1  0  0  0  0
 45 46  1  0  0  0  0
 45 54  2  0  0  0  0
 46 47  1  0  0  0  0
 46 48  2  0  0  0  0
 48 49  1  0  0  0  0
 48 50  1  0  0  0  0
 50 51  1  0  0  0  0
 50 52  2  0  0  0  0
 52 53  1  0  0  0  0
 52 54  1  0  0  0  0
M  END
>  <Activity>
9.0315

>  <AM1_dipole>
7.8682

>  <AM1_E>
-126437

>  <AM1_Eele>
-1.01447e+006

>  <AM1_HF>
50.9465

>  <AM1_HOMO>
-9.15132

>  <AM1_IP>
9.15132

>  <AM1_LUMO>
-0.95866

>  <diameter>
18

>  <petitjean>
0.5

>  <petitjeanSC>
1

>  <radius>
9

>  <VDistEq>
3.8894

>  <VDistMa>
9.76578

>  <weinerPath>
3523

>  <weinerPol>
56

>  <BCUT_PEOE_0>
-2.71185

>  <BCUT_PEOE_1>
-0.634025

>  <BCUT_PEOE_2>
0.651888

>  <BCUT_PEOE_3>
2.65034

>  <BCUT_SLOGP_0>
-2.86001

>  <BCUT_SLOGP_1>
-0.544707

>  <BCUT_SLOGP_2>
0.748421

>  <BCUT_SLOGP_3>
2.50323

>  <BCUT_SMR_0>
-2.43203

>  <BCUT_SMR_1>
-0.443095

>  <BCUT_SMR_2>
0.803619

>  <BCUT_SMR_3>
2.92018

>  <GCUT_PEOE_0>
-0.855

>  <GCUT_PEOE_1>
-0.411134

>  <GCUT_PEOE_2>
0.0756435

>  <GCUT_PEOE_3>
2.69385

>  <GCUT_SLOGP_0>
-0.9765

>  <GCUT_SLOGP_1>
-0.319348

>  <GCUT_SLOGP_2>
0.149675

>  <GCUT_SLOGP_3>
2.69257

>  <GCUT_SMR_0>
-0.508909

>  <GCUT_SMR_1>
-0.211172

>  <GCUT_SMR_2>
0.20729

>  <GCUT_SMR_3>
2.97101

>  <a_aro>
21

>  <a_count>
54

>  <a_IC>
86.0643

>  <a_ICM>
1.59378

>  <a_nH>
21

>  <b_1rotN>
6

>  <b_1rotR>
0.162162

>  <b_ar>
22

>  <b_count>
58

>  <b_double>
3

>  <b_rotN>
6

>  <b_rotR>
0.162162

>  <b_single>
33

>  <b_triple>
0

>  <chi0v>
17.7702

>  <chi0v_C>
14.2566

>  <chi1v>
10.6868

>  <chi1v_C>
6.86004

>  <chiral>
0

>  <chiral_u>
0

>  <nmol>
1

>  <reactive>
0

>  <rings>
5

>  <Weight>
439.475

>  <a_heavy>
33

>  <a_nB>
0

>  <a_nBr>
0

>  <a_nC>
25

>  <a_nCl>
0

>  <a_nF>
0

>  <a_nI>
0

>  <a_nN>
5

>  <a_nO>
3

>  <a_nP>
0

>  <a_nS>
0

>  <b_heavy>
37

>  <chi0>
22.7859

>  <chi0_C>
16.5099

>  <chi1>
16.131

>  <chi1_C>
9.37457

>  <FCharge>
0

>  <VAdjEq>
0.358235

>  <VAdjMa>
6.20945

>  <zagreb>
178

>  <balabanJ>
1.13657

>  <PEOE_PC+>
2.79814

>  <PEOE_PC->
-2.79814

>  <PEOE_RPC+>
0.105481

>  <PEOE_RPC->
0.128016

>  <PEOE_VSA+0>
107.424

>  <PEOE_VSA+1>
100.915

>  <PEOE_VSA+2>
6.69955

>  <PEOE_VSA+3>
8.61901

>  <PEOE_VSA+4>
0

>  <PEOE_VSA+5>
34.3576

>  <PEOE_VSA+6>
0

>  <PEOE_VSA-0>
61.2745

>  <PEOE_VSA-1>
49.0196

>  <PEOE_VSA-2>
0

>  <PEOE_VSA-3>
0

>  <PEOE_VSA-4>
0

>  <PEOE_VSA-5>
52.0659

>  <PEOE_VSA-6>
0.136891

>  <PEOE_VSA_FHYD>
0.794155

>  <PEOE_VSA_FNEG>
0.386426

>  <PEOE_VSA_FPNEG>
0.124141

>  <PEOE_VSA_FPOL>
0.205845

>  <PEOE_VSA_FPOS>
0.613574

>  <PEOE_VSA_FPPOS>
0.0817041

>  <PEOE_VSA_HYD>
333.952

>  <PEOE_VSA_NEG>
162.497

>  <PEOE_VSA_PNEG>
52.2028

>  <PEOE_VSA_POL>
86.5604

>  <PEOE_VSA_POS>
258.016

>  <PEOE_VSA_PPOS>
34.3576

>  <PC+>
6.105

>  <PC->
-6.106

>  <Q_PC+>
6.105

>  <Q_PC->
-6.106

>  <Q_RPC+>
0.107453

>  <Q_RPC->
0.10809

>  <Q_VSA_FHYD>
0.57681

>  <Q_VSA_FNEG>
0.447107

>  <Q_VSA_FPNEG>
0.163638

>  <Q_VSA_FPOL>
0.42319

>  <Q_VSA_FPOS>
0.552893

>  <Q_VSA_FPPOS>
0.259552

>  <Q_VSA_HYD>
242.556

>  <Q_VSA_NEG>
188.014

>  <Q_VSA_PNEG>
68.8118

>  <Q_VSA_POL>
177.957

>  <Q_VSA_POS>
232.499

>  <Q_VSA_PPOS>
109.145

>  <RPC+>
0.107453

>  <RPC->
0.10809

>  <lip_acc>
8

>  <lip_don>
1

>  <lip_druglike>
1

>  <lip_violation>
0

>  <opr_brigid>
28

>  <opr_leadlike>
1

>  <opr_nring>
5

>  <opr_nrot>
6

>  <opr_violation>
1

>  <E>
108.429

>  <E_ang>
7.38912

>  <E_ele>
22.9252

>  <E_nb>
88.0941

>  <E_oop>
0.0646339

>  <E_sol>
-16.9458

>  <E_stb>
1.40172

>  <E_str>
7.06863

>  <E_strain>
0.00406563

>  <E_tor>
4.41098

>  <E_vdw>
65.169

>  <E_rele>
0

>  <E_rnb>
-8.52651e-014

>  <E_rsol>
-8.52651e-014

>  <E_rvdw>
0

>  <Kier1>
24.6837

>  <Kier2>
11.3728

>  <Kier3>
5.40439

>  <KierA1>
16.4499

>  <KierA2>
7.47447

>  <KierA3>
3.516

>  <KierFlex>
3.7259

>  <logS>
-3.87729

>  <MNDO_dipole>
8.9798

>  <MNDO_E>
-126669

>  <MNDO_Eele>
-1.00762e+006

>  <MNDO_HF>
24.2522

>  <MNDO_HOMO>
-9.22698

>  <MNDO_IP>
9.22698

>  <MNDO_LUMO>
-0.76442

>  <apol>
65.9087

>  <bpol>
33.0913

>  <mr>
12.43

>  <dipole>
2.26166

>  <dipoleX>
0.15513

>  <dipoleY>
-2.18474

>  <dipoleZ>
-0.563897

>  <pmi>
11651.5

>  <pmiX>
7551.04

>  <pmiY>
3295.55

>  <pmiZ>
804.916

>  <rgyr>
5.14901

>  <a_acc>
5

>  <a_acid>
0

>  <a_base>
0

>  <a_don>
1

>  <a_hyd>
22

>  <vsa_acc>
52.0659

>  <vsa_acid>
0

>  <vsa_base>
0

>  <vsa_don>
5.68258

>  <vsa_hyd>
311.097

>  <vsa_other>
34.3576

>  <vsa_pol>
57.7485

>  <PM3_dipole>
8.22643

>  <PM3_E>
-114749

>  <PM3_Eele>
-993790

>  <PM3_HF>
10.4843

>  <PM3_HOMO>
-8.91781

>  <PM3_IP>
8.91781

>  <PM3_LUMO>
-1.19857

>  <SlogP>
2.7922

>  <SlogP_VSA0>
0

>  <SlogP_VSA1>
56.0249

>  <SlogP_VSA2>
40.6477

>  <SlogP_VSA3>
73.7583

>  <SlogP_VSA4>
54.0956

>  <SlogP_VSA5>
0

>  <SlogP_VSA6>
0

>  <SlogP_VSA7>
220.662

>  <SlogP_VSA8>
0

>  <SlogP_VSA9>
0

>  <SMR>
12.2581

>  <SMR_VSA0>
71.5866

>  <SMR_VSA1>
39.8197

>  <SMR_VSA2>
16.7855

>  <SMR_VSA3>
6.37115

>  <SMR_VSA4>
10.2306

>  <SMR_VSA5>
210.432

>  <SMR_VSA6>
89.9635

>  <SMR_VSA7>
0

>  <ASA>
717.174

>  <ASA+>
341.404

>  <ASA->
268.837

>  <ASA_H>
543.409

>  <ASA_P>
173.765

>  <CASA+>
2084.27

>  <CASA->
1641.52

>  <DASA>
72.567

>  <DCASA>
442.753

>  <FASA+>
0.476041

>  <FASA->
0.374856

>  <FASA_H>
0.757709

>  <FASA_P>
0.242291

>  <FCASA+>
2.90623

>  <FCASA->
2.28887

>  <VSA>
443.237

>  <TPSA>
99.26

>  <density>
0.754509

>  <vdw_area>
420.513

>  <vdw_vol>
582.465

>  <vsurf_A>
3.95975

>  <vsurf_CP>
0.109464

>  <vsurf_CW1>
2.6107

>  <vsurf_CW2>
2.05859

>  <vsurf_CW3>
1.25855

>  <vsurf_CW4>
0.590362

>  <vsurf_CW5>
0.290532

>  <vsurf_CW6>
0.131116

>  <vsurf_CW7>
0.0409914

>  <vsurf_CW8>
0.0176475

>  <vsurf_D1>
1083.5

>  <vsurf_D2>
639.375

>  <vsurf_D3>
479.5

>  <vsurf_D4>
412.375

>  <vsurf_D5>
358.75

>  <vsurf_D6>
290.375

>  <vsurf_D7>
169.5

>  <vsurf_D8>
89

>  <vsurf_DD12>
3.20156

>  <vsurf_DD13>
3.20156

>  <vsurf_DD23>
0.707107

>  <vsurf_DW12>
0.707107

>  <vsurf_DW13>
0.5

>  <vsurf_DW23>
0.5

>  <vsurf_EDmin1>
-2.85918

>  <vsurf_EDmin2>
-2.79843

>  <vsurf_EDmin3>
-2.74352

>  <vsurf_EWmin1>
-8.36433

>  <vsurf_EWmin2>
-8.24588

>  <vsurf_EWmin3>
-8.20073

>  <vsurf_G>
1.39939

>  <vsurf_HB1>
345.5

>  <vsurf_HB2>
357.125

>  <vsurf_HB3>
356.625

>  <vsurf_HB4>
153.875

>  <vsurf_HB5>
63.125

>  <vsurf_HB6>
25.625

>  <vsurf_HB7>
7.875

>  <vsurf_HB8>
3.125

>  <vsurf_HL1>
0.136861

>  <vsurf_HL2>
0.0624432

>  <vsurf_ID1>
1.39231

>  <vsurf_ID2>
1.28601

>  <vsurf_ID3>
1.37703

>  <vsurf_ID4>
1.55525

>  <vsurf_ID5>
1.71299

>  <vsurf_ID6>
1.76407

>  <vsurf_ID7>
1.37713

>  <vsurf_ID8>
0.925604

>  <vsurf_IW1>
0.106201

>  <vsurf_IW2>
1.11305

>  <vsurf_IW3>
1.82995

>  <vsurf_IW4>
2.39312

>  <vsurf_IW5>
2.62474

>  <vsurf_IW6>
2.9955

>  <vsurf_IW7>
4.57108

>  <vsurf_IW8>
5.51219

>  <vsurf_R>
1.45262

>  <vsurf_S>
653.992

>  <vsurf_V>
950

>  <vsurf_W1>
1568.5

>  <vsurf_W2>
891.25

>  <vsurf_W3>
452

>  <vsurf_W4>
163.25

>  <vsurf_W5>
65.625

>  <vsurf_W6>
25.75

>  <vsurf_W7>
7.875

>  <vsurf_W8>
3.125

>  <vsurf_Wp1>
1223

>  <vsurf_Wp2>
534.125

>  <vsurf_Wp3>
95.375

>  <vsurf_Wp4>
9.375

>  <vsurf_Wp5>
2.5

>  <vsurf_Wp6>
0.125

>  <vsurf_Wp7>
0

>  <vsurf_Wp8>
0

>  <dens>
1.06669

>  <glob>
0.059832

>  <std_dim1>
4.87169

>  <std_dim2>
2.19704

>  <std_dim3>
1.19164

>  <vol>
412

>  <logP(o/w)>
1.94553

$$$$
D15.cdx
  MOE2008           3D

 53 57  0  0  0  0  0  0  0  0999 V2000
   -4.4730    6.4510   -1.7780 C   0  0  0  0  0  0  0  0  0  0  0  0
   -4.9930    7.0200   -2.5450 H   0  0  0  0  0  0  0  0  0  0  0  0
   -5.1950    5.8350   -0.7610 C   0  0  0  0  0  0  0  0  0  0  0  0
   -6.2740    5.9510   -0.7620 H   0  0  0  0  0  0  0  0  0  0  0  0
   -4.5310    5.1010    0.2340 C   0  0  0  0  0  0  0  0  0  0  0  0
   -3.1320    5.0800    0.0760 C   0  0  0  0  0  0  0  0  0  0  0  0
   -2.4750    5.7160   -0.9730 C   0  0  0  0  0  0  0  0  0  0  0  0
   -3.1350    6.4180   -1.9240 N   0  0  0  0  0  0  0  0  0  0  0  0
   -2.1580    4.4860    0.8470 N   0  0  0  0  0  0  0  0  0  0  0  0
   -2.3770    3.9590    1.6870 H   0  0  0  0  0  0  0  0  0  0  0  0
   -0.9210    4.7200    0.3180 C   0  0  0  0  0  0  0  0  0  0  0  0
   -0.0390    4.3160    0.8000 H   0  0  0  0  0  0  0  0  0  0  0  0
   -1.0770    5.4860   -0.8260 C   0  0  0  0  0  0  0  0  0  0  0  0
    0.0020    5.9580   -1.6760 C   0  0  0  0  0  0  0  0  0  0  0  0
    1.4390    5.6950   -1.2610 C   0  0  0  0  0  0  0  0  0  0  0  0
    2.1440    6.7770   -0.7400 N   0  0  0  0  0  0  0  0  0  0  0  0
    3.5400    6.5960   -0.3430 C   0  0  0  0  0  0  0  0  0  0  0  0
    3.5350    6.3450    0.7250 H   0  0  0  0  0  0  0  0  0  0  0  0
    3.9790    5.7480   -0.8780 H   0  0  0  0  0  0  0  0  0  0  0  0
    4.3690    7.8610   -0.5850 C   0  0  0  0  0  0  0  0  0  0  0  0
    4.4000    8.0750   -1.6600 H   0  0  0  0  0  0  0  0  0  0  0  0
    5.3940    7.7090   -0.2350 H   0  0  0  0  0  0  0  0  0  0  0  0
    3.7910    9.0460    0.0710 N   0  0  0  0  0  0  0  0  0  0  0  0
    2.3670    8.9860    0.4070 C   0  0  0  0  0  0  0  0  0  0  0  0
    2.3020    8.5650    1.4180 H   0  0  0  0  0  0  0  0  0  0  0  0
    1.9460    9.9960    0.4440 H   0  0  0  0  0  0  0  0  0  0  0  0
    1.5710    8.1200   -0.5730 C   0  0  0  0  0  0  0  0  0  0  0  0
    1.5700    8.5850   -1.5670 H   0  0  0  0  0  0  0  0  0  0  0  0
    0.5320    8.0400   -0.2410 H   0  0  0  0  0  0  0  0  0  0  0  0
    4.5070   10.1910    0.4160 C   0  0  0  0  0  0  0  0  0  0  0  0
    5.9020   10.3270   -0.0610 C   0  0  0  0  0  0  0  0  0  0  0  0
   -0.1600    6.5910   -2.7160 O   0  0  0  0  0  0  0  0  0  0  0  0
    1.8710    4.5550   -1.3920 O   0  0  0  0  0  0  0  0  0  0  0  0
    4.0590   11.1030    1.1050 O   0  0  0  0  0  0  0  0  0  0  0  0
    6.1860   10.3540   -1.4300 C   0  0  0  0  0  0  0  0  0  0  0  0
    5.3890   10.2690   -2.1640 H   0  0  0  0  0  0  0  0  0  0  0  0
    7.5060   10.5060   -1.8560 C   0  0  0  0  0  0  0  0  0  0  0  0
    7.7360   10.5230   -2.9180 H   0  0  0  0  0  0  0  0  0  0  0  0
    8.5310   10.6470   -0.9180 C   0  0  0  0  0  0  0  0  0  0  0  0
    9.5580   10.7700   -1.2520 H   0  0  0  0  0  0  0  0  0  0  0  0
    8.2400   10.6450    0.4480 C   0  0  0  0  0  0  0  0  0  0  0  0
    9.0400   10.7690    1.1740 H   0  0  0  0  0  0  0  0  0  0  0  0
    6.9230   10.4910    0.8810 C   0  0  0  0  0  0  0  0  0  0  0  0
    6.6950   10.5010    1.9440 H   0  0  0  0  0  0  0  0  0  0  0  0
   -5.1830    4.4040    1.3590 C   0  0  0  0  0  0  0  0  0  0  0  0
   -6.5560    4.1980    1.4640 C   0  0  0  0  0  0  0  0  0  0  0  0
   -7.2570    4.5350    0.7090 H   0  0  0  0  0  0  0  0  0  0  0  0
   -7.1390    3.5530    2.5050 N   0  0  0  0  0  0  0  0  0  0  0  0
   -6.2990    3.1070    3.4600 C   0  0  0  0  0  0  0  0  0  0  0  0
   -6.7570    2.5920    4.2960 H   0  0  0  0  0  0  0  0  0  0  0  0
   -4.9350    3.2940    3.3770 C   0  0  0  0  0  0  0  0  0  0  0  0
   -4.2620    2.9320    4.1450 H   0  0  0  0  0  0  0  0  0  0  0  0
   -4.3550    3.9360    2.3380 N   0  0  0  0  0  0  0  0  0  0  0  0
  1  2  1  0  0  0  0
  1  3  1  0  0  0  0
  1  8  2  0  0  0  0
  3  4  1  0  0  0  0
  3  5  2  0  0  0  0
  5  6  1  0  0  0  0
  5 45  1  0  0  0  0
  6  7  2  0  0  0  0
  6  9  1  0  0  0  0
  7  8  1  0  0  0  0
  7 13  1  0  0  0  0
  9 10  1  0  0  0  0
  9 11  1  0  0  0  0
 11 12  1  0  0  0  0
 11 13  2  0  0  0  0
 13 14  1  0  0  0  0
 14 15  1  0  0  0  0
 14 32  2  0  0  0  0
 15 16  1  0  0  0  0
 15 33  2  0  0  0  0
 16 17  1  0  0  0  0
 16 27  1  0  0  0  0
 17 18  1  0  0  0  0
 17 19  1  0  0  0  0
 17 20  1  0  0  0  0
 20 21  1  0  0  0  0
 20 22  1  0  0  0  0
 20 23  1  0  0  0  0
 23 24  1  0  0  0  0
 23 30  1  0  0  0  0
 24 25  1  0  0  0  0
 24 26  1  0  0  0  0
 24 27  1  0  0  0  0
 27 28  1  0  0  0  0
 27 29  1  0  0  0  0
 30 31  1  0  0  0  0
 30 34  2  0  0  0  0
 31 35  1  0  0  0  0
 31 43  2  0  0  0  0
 35 36  1  0  0  0  0
 35 37  2  0  0  0  0
 37 38  1  0  0  0  0
 37 39  1  0  0  0  0
 39 40  1  0  0  0  0
 39 41  2  0  0  0  0
 41 42  1  0  0  0  0
 41 43  1  0  0  0  0
 43 44  1  0  0  0  0
 45 46  1  0  0  0  0
 45 53  2  0  0  0  0
 46 47  1  0  0  0  0
 46 48  2  0  0  0  0
 48 49  1  0  0  0  0
 49 50  1  0  0  0  0
 49 51  2  0  0  0  0
 51 52  1  0  0  0  0
 51 53  1  0  0  0  0
M  END
>  <Activity>
8.9318

>  <AM1_dipole>
0

>  <diameter>
18

>  <petitjean>
0.5

>  <petitjeanSC>
1

>  <radius>
9

>  <VDistEq>
3.8894

>  <VDistMa>
9.76578

>  <weinerPath>
3523

>  <weinerPol>
56

>  <BCUT_PEOE_0>
-2.71185

>  <BCUT_PEOE_1>
-0.640251

>  <BCUT_PEOE_2>
0.674453

>  <BCUT_PEOE_3>
2.65034

>  <BCUT_SLOGP_0>
-2.86001

>  <BCUT_SLOGP_1>
-0.551331

>  <BCUT_SLOGP_2>
0.772093

>  <BCUT_SLOGP_3>
2.50321

>  <BCUT_SMR_0>
-2.43203

>  <BCUT_SMR_1>
-0.461166

>  <BCUT_SMR_2>
0.827973

>  <BCUT_SMR_3>
2.92018

>  <GCUT_PEOE_0>
-0.854955

>  <GCUT_PEOE_1>
-0.41544

>  <GCUT_PEOE_2>
0.0780955

>  <GCUT_PEOE_3>
2.6869

>  <GCUT_SLOGP_0>
-0.976499

>  <GCUT_SLOGP_1>
-0.334827

>  <GCUT_SLOGP_2>
0.155533

>  <GCUT_SLOGP_3>
2.67576

>  <GCUT_SMR_0>
-0.508909

>  <GCUT_SMR_1>
-0.213575

>  <GCUT_SMR_2>
0.221505

>  <GCUT_SMR_3>
2.96193

>  <a_aro>
21

>  <a_count>
53

>  <a_IC>
86.8375

>  <a_ICM>
1.63844

>  <a_nH>
20

>  <b_1rotN>
6

>  <b_1rotR>
0.162162

>  <b_ar>
22

>  <b_count>
57

>  <b_double>
3

>  <b_rotN>
6

>  <b_rotR>
0.162162

>  <b_single>
32

>  <b_triple>
0

>  <chi0v>
17.6401

>  <chi0v_C>
13.6793

>  <chi1v>
10.5366

>  <chi1v_C>
6.19338

>  <chiral>
0

>  <chiral_u>
0

>  <nmol>
1

>  <reactive>
0

>  <rings>
5

>  <Weight>
440.463

>  <a_heavy>
33

>  <a_nB>
0

>  <a_nBr>
0

>  <a_nC>
24

>  <a_nCl>
0

>  <a_nF>
0

>  <a_nI>
0

>  <a_nN>
6

>  <a_nO>
3

>  <a_nP>
0

>  <a_nS>
0

>  <b_heavy>
37

>  <chi0>
22.7859

>  <chi0_C>
15.8028

>  <chi1>
16.131

>  <chi1_C>
8.37457

>  <FCharge>
0

>  <VAdjEq>
0.358235

>  <VAdjMa>
6.20945

>  <zagreb>
178

>  <balabanJ>
1.13657

>  <PEOE_PC+>
2.91722

>  <PEOE_PC->
-2.91722

>  <PEOE_RPC+>
0.101175

>  <PEOE_RPC->
0.12279

>  <PEOE_VSA+0>
124.17

>  <PEOE_VSA+1>
113.396

>  <PEOE_VSA+2>
6.69955

>  <PEOE_VSA+3>
8.61901

>  <PEOE_VSA+4>
0

>  <PEOE_VSA+5>
34.3576

>  <PEOE_VSA+6>
0

>  <PEOE_VSA-0>
36.7647

>  <PEOE_VSA-1>
36.7647

>  <PEOE_VSA-2>
0

>  <PEOE_VSA-3>
0

>  <PEOE_VSA-4>
0

>  <PEOE_VSA-5>
57.7485

>  <PEOE_VSA-6>
0.136891

>  <PEOE_VSA_FHYD>
0.779669

>  <PEOE_VSA_FNEG>
0.313896

>  <PEOE_VSA_FPNEG>
0.138264

>  <PEOE_VSA_FPOL>
0.220331

>  <PEOE_VSA_FPOS>
0.686104

>  <PEOE_VSA_FPPOS>
0.0820662

>  <PEOE_VSA_HYD>
326.414

>  <PEOE_VSA_NEG>
131.415

>  <PEOE_VSA_PNEG>
57.8854

>  <PEOE_VSA_POL>
92.243

>  <PEOE_VSA_POS>
287.242

>  <PEOE_VSA_PPOS>
34.3576

>  <PC+>
6.275

>  <PC->
-6.276

>  <Q_PC+>
6.275

>  <Q_PC->
-6.276

>  <Q_RPC+>
0.104542

>  <Q_RPC->
0.105163

>  <Q_VSA_FHYD>
0.561361

>  <Q_VSA_FNEG>
0.374846

>  <Q_VSA_FPNEG>
0.177937

>  <Q_VSA_FPOL>
0.438639

>  <Q_VSA_FPOS>
0.625154

>  <Q_VSA_FPPOS>
0.260703

>  <Q_VSA_HYD>
235.017

>  <Q_VSA_NEG>
156.932

>  <Q_VSA_PNEG>
74.4944

>  <Q_VSA_POL>
183.639

>  <Q_VSA_POS>
261.725

>  <Q_VSA_PPOS>
109.145

>  <RPC+>
0.104542

>  <RPC->
0.105163

>  <lip_acc>
9

>  <lip_don>
1

>  <lip_druglike>
1

>  <lip_violation>
0

>  <opr_brigid>
28

>  <opr_leadlike>
0

>  <opr_nring>
5

>  <opr_nrot>
6

>  <opr_violation>
2

>  <E>
124.354

>  <E_ang>
7.80452

>  <E_ele>
37.9045

>  <E_nb>
103.69

>  <E_oop>
0.0689335

>  <E_sol>
-24.7896

>  <E_stb>
1.724

>  <E_str>
6.86124

>  <E_strain>
0.00378363

>  <E_tor>
4.20597

>  <E_vdw>
65.7852

>  <E_rele>
0

>  <E_rnb>
-6.39488e-014

>  <E_rsol>
-6.39488e-014

>  <E_rvdw>
0

>  <Kier1>
24.6837

>  <Kier2>
11.3728

>  <Kier3>
5.40439

>  <KierA1>
16.3801

>  <KierA2>
7.44159

>  <KierA3>
3.50013

>  <KierFlex>
3.69376

>  <logS>
-2.61915

>  <MNDO_dipole>
4.66377

>  <MNDO_E>
-128168

>  <MNDO_Eele>
-999342

>  <MNDO_HF>
33.2911

>  <MNDO_HOMO>
-9.32017

>  <MNDO_IP>
9.32017

>  <MNDO_LUMO>
-0.98287

>  <apol>
64.5819

>  <bpol>
33.3181

>  <mr>
12.2508

>  <dipole>
1.15445

>  <dipoleX>
-0.0554059

>  <dipoleY>
-0.637683

>  <dipoleZ>
0.960747

>  <pmi>
13322.8

>  <pmiX>
9491.81

>  <pmiY>
2803.1

>  <pmiZ>
1027.85

>  <rgyr>
5.49974

>  <a_acc>
6

>  <a_acid>
0

>  <a_base>
0

>  <a_don>
1

>  <a_hyd>
21

>  <vsa_acc>
57.7485

>  <vsa_acid>
0

>  <vsa_base>
0

>  <vsa_don>
5.68258

>  <vsa_hyd>
304.271

>  <vsa_other>
34.3576

>  <vsa_pol>
63.4311

>  <PM3_dipole>
5.07085

>  <PM3_E>
-115398

>  <PM3_Eele>
-985969

>  <PM3_HF>
17.2477

>  <PM3_HOMO>
-9.07151

>  <PM3_IP>
9.07151

>  <PM3_LUMO>
-1.46387

>  <SlogP>
2.1872

>  <SlogP_VSA0>
0

>  <SlogP_VSA1>
72.8104

>  <SlogP_VSA2>
40.6477

>  <SlogP_VSA3>
73.7583

>  <SlogP_VSA4>
54.0956

>  <SlogP_VSA5>
0

>  <SlogP_VSA6>
0

>  <SlogP_VSA7>
202.161

>  <SlogP_VSA8>
0

>  <SlogP_VSA9>
0

>  <SMR>
12.0376

>  <SMR_VSA0>
71.5866

>  <SMR_VSA1>
56.6052

>  <SMR_VSA2>
16.7855

>  <SMR_VSA3>
6.37115

>  <SMR_VSA4>
10.2306

>  <SMR_VSA5>
191.931

>  <SMR_VSA6>
89.9635

>  <SMR_VSA7>
0

>  <ASA>
706.621

>  <ASA+>
369.55

>  <ASA->
230.894

>  <ASA_H>
515.375

>  <ASA_P>
191.246

>  <CASA+>
2318.92

>  <CASA->
1449.09

>  <DASA>
138.656

>  <DCASA>
869.835

>  <FASA+>
0.522982

>  <FASA->
0.326758

>  <FASA_H>
0.729351

>  <FASA_P>
0.270649

>  <FCASA+>
3.28171

>  <FCASA->
2.05073

>  <VSA>
436.46

>  <TPSA>
112.15

>  <density>
0.768175

>  <vdw_area>
418.657

>  <vdw_vol>
573.389

>  <vsurf_A>
2.1622

>  <vsurf_CP>
0.0825272

>  <vsurf_CW1>
2.68271

>  <vsurf_CW2>
2.21979

>  <vsurf_CW3>
1.4518

>  <vsurf_CW4>
0.686998

>  <vsurf_CW5>
0.341185

>  <vsurf_CW6>
0.149854

>  <vsurf_CW7>
0.0445595

>  <vsurf_CW8>
0.0179678

>  <vsurf_D1>
1040.38

>  <vsurf_D2>
610.625

>  <vsurf_D3>
453

>  <vsurf_D4>
378.375

>  <vsurf_D5>
324.25

>  <vsurf_D6>
267.125

>  <vsurf_D7>
168.5

>  <vsurf_D8>
98.625

>  <vsurf_DD12>
3.53553

>  <vsurf_DD13>
3.90512

>  <vsurf_DD23>
0.5

>  <vsurf_DW12>
0.5

>  <vsurf_DW13>
0.707107

>  <vsurf_DW23>
0.5

>  <vsurf_EDmin1>
-2.73004

>  <vsurf_EDmin2>
-2.70881

>  <vsurf_EDmin3>
-2.7055

>  <vsurf_EWmin1>
-8.40976

>  <vsurf_EWmin2>
-8.38511

>  <vsurf_EWmin3>
-8.13637

>  <vsurf_G>
1.39908

>  <vsurf_HB1>
420.75

>  <vsurf_HB2>
464.875

>  <vsurf_HB3>
425.625

>  <vsurf_HB4>
182.625

>  <vsurf_HB5>
74.625

>  <vsurf_HB6>
28.75

>  <vsurf_HB7>
8.375

>  <vsurf_HB8>
3.125

>  <vsurf_HL1>
0.169978

>  <vsurf_HL2>
0.0763132

>  <vsurf_ID1>
0.421627

>  <vsurf_ID2>
0.380924

>  <vsurf_ID3>
0.48902

>  <vsurf_ID4>
0.716279

>  <vsurf_ID5>
0.906648

>  <vsurf_ID6>
0.833515

>  <vsurf_ID7>
0.809689

>  <vsurf_ID8>
1.47295

>  <vsurf_IW1>
0.500329

>  <vsurf_IW2>
1.03479

>  <vsurf_IW3>
1.19566

>  <vsurf_IW4>
1.45295

>  <vsurf_IW5>
1.71126

>  <vsurf_IW6>
2.25585

>  <vsurf_IW7>
3.72033

>  <vsurf_IW8>
4.14294

>  <vsurf_R>
1.44506

>  <vsurf_S>
646.775

>  <vsurf_V>
934.625

>  <vsurf_W1>
1651.88

>  <vsurf_W2>
997.125

>  <vsurf_W3>
523.25

>  <vsurf_W4>
191.375

>  <vsurf_W5>
77

>  <vsurf_W6>
28.875

>  <vsurf_W7>
8.375

>  <vsurf_W8>
3.125

>  <vsurf_Wp1>
1231.13

>  <vsurf_Wp2>
532.25

>  <vsurf_Wp3>
97.625

>  <vsurf_Wp4>
8.75

>  <vsurf_Wp5>
2.375

>  <vsurf_Wp6>
0.125

>  <vsurf_Wp7>
0

>  <vsurf_Wp8>
0

>  <dens>
1.08222

>  <glob>
0.0445644

>  <std_dim1>
5.44375

>  <std_dim2>
1.57353

>  <std_dim3>
1.14919

>  <vol>
407

>  <logP(o/w)>
0.90806

$$$$
D15.cdx
  MOE2008           3D

 52 56  0  0  0  0  0  0  0  0999 V2000
   -5.3060    2.2320    1.2280 C   0  0  0  0  0  0  0  0  0  0  0  0
   -6.1270    2.9090    1.4530 H   0  0  0  0  0  0  0  0  0  0  0  0
   -5.3730    0.9040    1.6340 C   0  0  0  0  0  0  0  0  0  0  0  0
   -6.2560    0.5770    2.1710 H   0  0  0  0  0  0  0  0  0  0  0  0
   -4.3090    0.0470    1.3400 C   0  0  0  0  0  0  0  0  0  0  0  0
   -3.2460    0.6370    0.6370 C   0  0  0  0  0  0  0  0  0  0  0  0
   -3.2550    1.9760    0.2590 C   0  0  0  0  0  0  0  0  0  0  0  0
   -4.2880    2.8040    0.5530 N   0  0  0  0  0  0  0  0  0  0  0  0
   -2.0590    0.1050    0.1910 N   0  0  0  0  0  0  0  0  0  0  0  0
   -1.8030   -0.8670    0.3410 H   0  0  0  0  0  0  0  0  0  0  0  0
   -1.3250    1.0610   -0.4550 C   0  0  0  0  0  0  0  0  0  0  0  0
   -0.3600    0.8090   -0.8770 H   0  0  0  0  0  0  0  0  0  0  0  0
   -2.0410    2.2470   -0.4370 C   0  0  0  0  0  0  0  0  0  0  0  0
   -1.6060    3.5070   -1.0210 C   0  0  0  0  0  0  0  0  0  0  0  0
   -0.2200    3.5990   -1.6350 C   0  0  0  0  0  0  0  0  0  0  0  0
    0.8030    4.0540   -0.8050 N   0  0  0  0  0  0  0  0  0  0  0  0
    2.1770    4.0740   -1.3070 C   0  0  0  0  0  0  0  0  0  0  0  0
    2.2890    3.3660   -2.1350 H   0  0  0  0  0  0  0  0  0  0  0  0
    2.3530    5.0810   -1.7060 H   0  0  0  0  0  0  0  0  0  0  0  0
    3.1880    3.7580   -0.2010 C   0  0  0  0  0  0  0  0  0  0  0  0
    4.2070    3.8280   -0.5930 H   0  0  0  0  0  0  0  0  0  0  0  0
    3.0260    2.7350    0.1570 H   0  0  0  0  0  0  0  0  0  0  0  0
    3.0450    4.6460    0.9640 N   0  0  0  0  0  0  0  0  0  0  0  0
    1.7630    5.3400    1.1130 C   0  0  0  0  0  0  0  0  0  0  0  0
    1.5900    5.5950    2.1640 H   0  0  0  0  0  0  0  0  0  0  0  0
    1.8520    6.2810    0.5570 H   0  0  0  0  0  0  0  0  0  0  0  0
    0.5880    4.5210    0.5720 C   0  0  0  0  0  0  0  0  0  0  0  0
   -0.3320    5.1110    0.6210 H   0  0  0  0  0  0  0  0  0  0  0  0
    0.4430    3.6240    1.1860 H   0  0  0  0  0  0  0  0  0  0  0  0
    4.0450    4.8890    1.9050 C   0  0  0  0  0  0  0  0  0  0  0  0
    5.2910    4.0920    1.8390 C   0  0  0  0  0  0  0  0  0  0  0  0
   -2.2850    4.5290   -1.0420 O   0  0  0  0  0  0  0  0  0  0  0  0
   -0.0860    3.2390   -2.8000 O   0  0  0  0  0  0  0  0  0  0  0  0
    3.9700    5.7370    2.7890 O   0  0  0  0  0  0  0  0  0  0  0  0
    5.2570    2.7040    2.0130 C   0  0  0  0  0  0  0  0  0  0  0  0
    4.3170    2.1890    2.1890 H   0  0  0  0  0  0  0  0  0  0  0  0
    6.4480    1.9780    1.9740 C   0  0  0  0  0  0  0  0  0  0  0  0
    6.4350    0.8990    2.1050 H   0  0  0  0  0  0  0  0  0  0  0  0
    7.6630    2.6390    1.7780 C   0  0  0  0  0  0  0  0  0  0  0  0
    8.5900    2.0710    1.7520 H   0  0  0  0  0  0  0  0  0  0  0  0
    7.6940    4.0270    1.6280 C   0  0  0  0  0  0  0  0  0  0  0  0
    8.6440    4.5370    1.4900 H   0  0  0  0  0  0  0  0  0  0  0  0
    6.5070    4.7590    1.6660 C   0  0  0  0  0  0  0  0  0  0  0  0
    6.5320    5.8410    1.5620 H   0  0  0  0  0  0  0  0  0  0  0  0
   -4.3160   -1.3180    1.7290 N   0  0  0  0  0  0  0  0  0  0  0  0
   -5.2900   -2.0200    2.4060 C   0  0  0  0  0  0  0  0  0  0  0  0
   -6.2150   -1.5670    2.7300 H   0  0  0  0  0  0  0  0  0  0  0  0
   -4.8310   -3.3090    2.5440 C   0  0  0  0  0  0  0  0  0  0  0  0
   -5.3390   -4.1330    3.0240 H   0  0  0  0  0  0  0  0  0  0  0  0
   -3.5730   -3.3050    1.9250 C   0  0  0  0  0  0  0  0  0  0  0  0
   -2.8760   -4.1240    1.8120 H   0  0  0  0  0  0  0  0  0  0  0  0
   -3.2470   -2.1100    1.4300 N   0  0  0  0  0  0  0  0  0  0  0  0
  1  2  1  0  0  0  0
  1  3  1  0  0  0  0
  1  8  2  0  0  0  0
  3  4  1  0  0  0  0
  3  5  2  0  0  0  0
  5  6  1  0  0  0  0
  5 45  1  0  0  0  0
  6  7  2  0  0  0  0
  6  9  1  0  0  0  0
  7  8  1  0  0  0  0
  7 13  1  0  0  0  0
  9 10  1  0  0  0  0
  9 11  1  0  0  0  0
 11 12  1  0  0  0  0
 11 13  2  0  0  0  0
 13 14  1  0  0  0  0
 14 15  1  0  0  0  0
 14 32  2  0  0  0  0
 15 16  1  0  0  0  0
 15 33  2  0  0  0  0
 16 17  1  0  0  0  0
 16 27  1  0  0  0  0
 17 18  1  0  0  0  0
 17 19  1  0  0  0  0
 17 20  1  0  0  0  0
 20 21  1  0  0  0  0
 20 22  1  0  0  0  0
 20 23  1  0  0  0  0
 23 24  1  0  0  0  0
 23 30  1  0  0  0  0
 24 25  1  0  0  0  0
 24 26  1  0  0  0  0
 24 27  1  0  0  0  0
 27 28  1  0  0  0  0
 27 29  1  0  0  0  0
 30 31  1  0  0  0  0
 30 34  2  0  0  0  0
 31 35  1  0  0  0  0
 31 43  2  0  0  0  0
 35 36  1  0  0  0  0
 35 37  2  0  0  0  0
 37 38  1  0  0  0  0
 37 39  1  0  0  0  0
 39 40  1  0  0  0  0
 39 41  2  0  0  0  0
 41 42  1  0  0  0  0
 41 43  1  0  0  0  0
 43 44  1  0  0  0  0
 45 46  1  0  0  0  0
 45 52  1  0  0  0  0
 46 47  1  0  0  0  0
 46 48  2  0  0  0  0
 48 49  1  0  0  0  0
 48 50  1  0  0  0  0
 50 51  1  0  0  0  0
 50 52  2  0  0  0  0
M  END
>  <Activity>
9.0506

>  <AM1_dipole>
5.93945

>  <AM1_E>
-124944

>  <AM1_Eele>
-985836

>  <AM1_HF>
95.8614

>  <AM1_HOMO>
-9.16843

>  <AM1_IP>
9.16843

>  <AM1_LUMO>
-0.91448

>  <diameter>
17

>  <petitjean>
0.470588

>  <petitjeanSC>
0.888889

>  <radius>
9

>  <VDistEq>
3.84504

>  <VDistMa>
9.6768

>  <weinerPath>
3225

>  <weinerPol>
53

>  <BCUT_PEOE_0>
-2.71185

>  <BCUT_PEOE_1>
-0.635925

>  <BCUT_PEOE_2>
0.698844

>  <BCUT_PEOE_3>
2.65035

>  <BCUT_SLOGP_0>
-2.86001

>  <BCUT_SLOGP_1>
-0.53808

>  <BCUT_SLOGP_2>
0.805915

>  <BCUT_SLOGP_3>
2.50312

>  <BCUT_SMR_0>
-2.43203

>  <BCUT_SMR_1>
-0.456363

>  <BCUT_SMR_2>
0.854311

>  <BCUT_SMR_3>
2.92017

>  <GCUT_PEOE_0>
-0.852389

>  <GCUT_PEOE_1>
-0.403735

>  <GCUT_PEOE_2>
0.080099

>  <GCUT_PEOE_3>
2.68415

>  <GCUT_SLOGP_0>
-0.976512

>  <GCUT_SLOGP_1>
-0.348744

>  <GCUT_SLOGP_2>
0.164454

>  <GCUT_SLOGP_3>
2.66338

>  <GCUT_SMR_0>
-0.508913

>  <GCUT_SMR_1>
-0.216057

>  <GCUT_SMR_2>
0.233275

>  <GCUT_SMR_3>
2.95748

>  <a_aro>
20

>  <a_count>
52

>  <a_IC>
85.6777

>  <a_ICM>
1.64765

>  <a_nH>
20

>  <b_1rotN>
6

>  <b_1rotR>
0.166667

>  <b_ar>
21

>  <b_count>
56

>  <b_double>
3

>  <b_rotN>
6

>  <b_rotR>
0.166667

>  <b_single>
32

>  <b_triple>
0

>  <chi0v>
17.1401

>  <chi0v_C>
13.1793

>  <chi1v>
10.273

>  <chi1v_C>
5.98803

>  <chiral>
0

>  <chiral_u>
0

>  <nmol>
1

>  <reactive>
0

>  <rings>
5

>  <Weight>
428.452

>  <a_heavy>
32

>  <a_nB>
0

>  <a_nBr>
0

>  <a_nC>
23

>  <a_nCl>
0

>  <a_nF>
0

>  <a_nI>
0

>  <a_nN>
6

>  <a_nO>
3

>  <a_nP>
0

>  <a_nS>
0

>  <b_heavy>
36

>  <chi0>
22.0788

>  <chi0_C>
15.2254

>  <chi1>
15.631

>  <chi1_C>
8.13299

>  <FCharge>
0

>  <VAdjEq>
0.367089

>  <VAdjMa>
6.16993

>  <zagreb>
174

>  <balabanJ>
1.13766

>  <PEOE_PC+>
2.82448

>  <PEOE_PC->
-2.82448

>  <PEOE_RPC+>
0.104498

>  <PEOE_RPC->
0.12642

>  <PEOE_VSA+0>
121.962

>  <PEOE_VSA+1>
96.65

>  <PEOE_VSA+2>
6.69955

>  <PEOE_VSA+3>
8.61901

>  <PEOE_VSA+4>
0

>  <PEOE_VSA+5>
34.3576

>  <PEOE_VSA+6>
0

>  <PEOE_VSA-0>
49.0196

>  <PEOE_VSA-1>
36.7647

>  <PEOE_VSA-2>
0

>  <PEOE_VSA-3>
9.42104

>  <PEOE_VSA-4>
0

>  <PEOE_VSA-5>
46.3833

>  <PEOE_VSA-6>
0.136891

>  <PEOE_VSA_FHYD>
0.802743

>  <PEOE_VSA_FNEG>
0.345661

>  <PEOE_VSA_FPNEG>
0.11346

>  <PEOE_VSA_FPOL>
0.197257

>  <PEOE_VSA_FPOS>
0.654339

>  <PEOE_VSA_FPPOS>
0.0837963

>  <PEOE_VSA_HYD>
329.135

>  <PEOE_VSA_NEG>
141.726

>  <PEOE_VSA_PNEG>
46.5202

>  <PEOE_VSA_POL>
80.8778

>  <PEOE_VSA_POS>
268.288

>  <PEOE_VSA_PPOS>
34.3576

>  <PC+>
6.217

>  <PC->
-6.218

>  <Q_PC+>
6.217

>  <Q_PC->
-6.218

>  <Q_RPC+>
0.105517

>  <Q_RPC->
0.113702

>  <Q_VSA_FHYD>
0.532353

>  <Q_VSA_FNEG>
0.465078

>  <Q_VSA_FPNEG>
0.217789

>  <Q_VSA_FPOL>
0.467647

>  <Q_VSA_FPOS>
0.534922

>  <Q_VSA_FPPOS>
0.249859

>  <Q_VSA_HYD>
218.272

>  <Q_VSA_NEG>
190.688

>  <Q_VSA_PNEG>
89.2962

>  <Q_VSA_POL>
191.742

>  <Q_VSA_POS>
219.325

>  <Q_VSA_PPOS>
102.445

>  <RPC+>
0.105517

>  <RPC->
0.113702

>  <lip_acc>
9

>  <lip_don>
1

>  <lip_druglike>
1

>  <lip_violation>
0

>  <opr_brigid>
27

>  <opr_leadlike>
0

>  <opr_nring>
5

>  <opr_nrot>
6

>  <opr_violation>
2

>  <E>
99.3155

>  <E_ang>
8.65824

>  <E_ele>
26.2378

>  <E_nb>
78.873

>  <E_oop>
0.0657034

>  <E_sol>
-22.0515

>  <E_stb>
1.50159

>  <E_str>
6.0277

>  <E_strain>
0.00571537

>  <E_tor>
4.18933

>  <E_vdw>
52.6352

>  <E_rele>
0

>  <E_rnb>
1.42109e-014

>  <E_rsol>
1.42109e-014

>  <E_rvdw>
0

>  <Kier1>
23.7284

>  <Kier2>
10.7266

>  <Kier3>
5.03472

>  <KierA1>
15.75

>  <KierA2>
7.0173

>  <KierA3>
3.26003

>  <KierFlex>
3.45383

>  <logS>
-2.89416

>  <MNDO_dipole>
6.89412

>  <MNDO_E>
-125204

>  <MNDO_Eele>
-979945

>  <MNDO_HF>
47.799

>  <MNDO_HOMO>
-9.3744

>  <MNDO_IP>
9.3744

>  <MNDO_LUMO>
-0.90258

>  <apol>
62.8219

>  <bpol>
32.6581

>  <mr>
11.8446

>  <dipole>
1.9169

>  <dipoleX>
0.119487

>  <dipoleY>
-1.80971

>  <dipoleZ>
0.620616

>  <pmi>
10758.4

>  <pmiX>
7196.11

>  <pmiY>
2731.7

>  <pmiZ>
830.551

>  <rgyr>
5.01097

>  <a_acc>
5

>  <a_acid>
0

>  <a_base>
0

>  <a_don>
1

>  <a_hyd>
20

>  <vsa_acc>
55.8044

>  <vsa_acid>
0

>  <vsa_base>
0

>  <vsa_don>
5.68258

>  <vsa_hyd>
297.571

>  <vsa_other>
34.3576

>  <vsa_pol>
61.487

>  <PM3_dipole>
6.03252

>  <PM3_E>
-112648

>  <PM3_Eele>
-963738

>  <PM3_HF>
31.9044

>  <PM3_HOMO>
-9.02635

>  <PM3_IP>
9.02635

>  <PM3_LUMO>
-1.1648

>  <SlogP>
1.9159

>  <SlogP_VSA0>
0

>  <SlogP_VSA1>
57.6789

>  <SlogP_VSA2>
40.6477

>  <SlogP_VSA3>
73.7583

>  <SlogP_VSA4>
54.0956

>  <SlogP_VSA5>
0

>  <SlogP_VSA6>
0

>  <SlogP_VSA7>
199.405

>  <SlogP_VSA8>
0

>  <SlogP_VSA9>
0

>  <SMR>
11.6472

>  <SMR_VSA0>
71.5866

>  <SMR_VSA1>
41.4737

>  <SMR_VSA2>
16.7855

>  <SMR_VSA3>
6.37115

>  <SMR_VSA4>
7.04502

>  <SMR_VSA5>
192.36

>  <SMR_VSA6>
89.9635

>  <SMR_VSA7>
0

>  <ASA>
693.998

>  <ASA+>
323.289

>  <ASA->
269.215

>  <ASA_H>
499.395

>  <ASA_P>
194.603

>  <CASA+>
2009.89

>  <CASA->
1673.98

>  <DASA>
54.074

>  <DCASA>
335.909

>  <FASA+>
0.465835

>  <FASA->
0.387918

>  <FASA_H>
0.719592

>  <FASA_P>
0.280408

>  <FCASA+>
2.8961

>  <FCASA->
2.41208

>  <VSA>
429.15

>  <TPSA>
104.19

>  <density>
0.769768

>  <vdw_area>
410.013

>  <vdw_vol>
556.599

>  <vsurf_A>
3.51013

>  <vsurf_CP>
0.105249

>  <vsurf_CW1>
2.62981

>  <vsurf_CW2>
2.09367

>  <vsurf_CW3>
1.29531

>  <vsurf_CW4>
0.608061

>  <vsurf_CW5>
0.312558

>  <vsurf_CW6>
0.145691

>  <vsurf_CW7>
0.0527376

>  <vsurf_CW8>
0.0256928

>  <vsurf_D1>
1036.25

>  <vsurf_D2>
611.125

>  <vsurf_D3>
460.625

>  <vsurf_D4>
394.5

>  <vsurf_D5>
343.25

>  <vsurf_D6>
280

>  <vsurf_D7>
162.75

>  <vsurf_D8>
90.625

>  <vsurf_DD12>
1.11803

>  <vsurf_DD13>
3.4641

>  <vsurf_DD23>
2.69258

>  <vsurf_DW12>
0.5

>  <vsurf_DW13>
0.5

>  <vsurf_DW23>
0.707107

>  <vsurf_EDmin1>
-2.79933

>  <vsurf_EDmin2>
-2.78604

>  <vsurf_EDmin3>
-2.78587

>  <vsurf_EWmin1>
-8.66029

>  <vsurf_EWmin2>
-8.48206

>  <vsurf_EWmin3>
-7.95922

>  <vsurf_G>
1.38603

>  <vsurf_HB1>
349.5

>  <vsurf_HB2>
371.25

>  <vsurf_HB3>
358.5

>  <vsurf_HB4>
158.25

>  <vsurf_HB5>
67.875

>  <vsurf_HB6>
29.125

>  <vsurf_HB7>
10

>  <vsurf_HB8>
4.75

>  <vsurf_HL1>
0.15251

>  <vsurf_HL2>
0.0738276

>  <vsurf_ID1>
1.32792

>  <vsurf_ID2>
1.23724

>  <vsurf_ID3>
1.29224

>  <vsurf_ID4>
1.46336

>  <vsurf_ID5>
1.61223

>  <vsurf_ID6>
1.65899

>  <vsurf_ID7>
1.21617

>  <vsurf_ID8>
0.882435

>  <vsurf_IW1>
0.0746106

>  <vsurf_IW2>
0.976536

>  <vsurf_IW3>
1.54286

>  <vsurf_IW4>
2.10995

>  <vsurf_IW5>
2.29845

>  <vsurf_IW6>
2.395

>  <vsurf_IW7>
3.2658

>  <vsurf_IW8>
4.17635

>  <vsurf_R>
1.45063

>  <vsurf_S>
633.692

>  <vsurf_V>
919.25

>  <vsurf_W1>
1541

>  <vsurf_W2>
891.25

>  <vsurf_W3>
458.625

>  <vsurf_W4>
168

>  <vsurf_W5>
70.25

>  <vsurf_W6>
29.125

>  <vsurf_W7>
10

>  <vsurf_W8>
4.75

>  <vsurf_Wp1>
1191.5

>  <vsurf_Wp2>
520

>  <vsurf_Wp3>
100.125

>  <vsurf_Wp4>
9.75

>  <vsurf_Wp5>
2.375

>  <vsurf_Wp6>
0

>  <vsurf_Wp7>
0

>  <vsurf_Wp8>
0

>  <dens>
1.08161

>  <glob>
0.0623571

>  <std_dim1>
4.71124

>  <std_dim2>
2.1309

>  <std_dim3>
1.17646

>  <vol>
396.125

>  <logP(o/w)>
1.08306

$$$$
D15.cdx
  MOE2008           3D

 51 55  0  0  0  0  0  0  0  0999 V2000
   -4.4760   -1.3150   -0.6910 C   0  0  0  0  0  0  0  0  0  0  0  0
   -5.0310   -0.5010   -1.1520 H   0  0  0  0  0  0  0  0  0  0  0  0
   -5.1150   -2.1850    0.1810 C   0  0  0  0  0  0  0  0  0  0  0  0
   -6.1700   -2.0370    0.3920 H   0  0  0  0  0  0  0  0  0  0  0  0
   -4.3930   -3.2260    0.7720 C   0  0  0  0  0  0  0  0  0  0  0  0
   -3.0410   -3.2920    0.4040 C   0  0  0  0  0  0  0  0  0  0  0  0
   -2.4710   -2.3820   -0.4830 C   0  0  0  0  0  0  0  0  0  0  0  0
   -3.1790   -1.3710   -1.0460 N   0  0  0  0  0  0  0  0  0  0  0  0
   -2.0410   -4.1610    0.7740 N   0  0  0  0  0  0  0  0  0  0  0  0
   -2.1770   -4.9360    1.4120 H   0  0  0  0  0  0  0  0  0  0  0  0
   -0.8670   -3.8230    0.1600 C   0  0  0  0  0  0  0  0  0  0  0  0
    0.0270   -4.4070    0.3400 H   0  0  0  0  0  0  0  0  0  0  0  0
   -1.0960   -2.7160   -0.6400 C   0  0  0  0  0  0  0  0  0  0  0  0
   -0.0990   -2.0430   -1.4550 C   0  0  0  0  0  0  0  0  0  0  0  0
    1.3550   -2.4620   -1.3380 C   0  0  0  0  0  0  0  0  0  0  0  0
    2.1930   -1.6090   -0.6240 N   0  0  0  0  0  0  0  0  0  0  0  0
    3.6120   -1.9400   -0.4980 C   0  0  0  0  0  0  0  0  0  0  0  0
    3.7240   -2.4980    0.4400 H   0  0  0  0  0  0  0  0  0  0  0  0
    3.9210   -2.6010   -1.3140 H   0  0  0  0  0  0  0  0  0  0  0  0
    4.4880   -0.6840   -0.4740 C   0  0  0  0  0  0  0  0  0  0  0  0
    4.3980   -0.1590   -1.4320 H   0  0  0  0  0  0  0  0  0  0  0  0
    5.5370   -0.9620   -0.3310 H   0  0  0  0  0  0  0  0  0  0  0  0
    4.0810    0.2660    0.5740 N   0  0  0  0  0  0  0  0  0  0  0  0
    2.7110    0.1470    1.0770 C   0  0  0  0  0  0  0  0  0  0  0  0
    2.7460   -0.5550    1.9190 H   0  0  0  0  0  0  0  0  0  0  0  0
    2.3670    1.1110    1.4690 H   0  0  0  0  0  0  0  0  0  0  0  0
    1.7390   -0.3630    0.0100 C   0  0  0  0  0  0  0  0  0  0  0  0
    1.6420    0.3780   -0.7920 H   0  0  0  0  0  0  0  0  0  0  0  0
    0.7480   -0.5120    0.4490 H   0  0  0  0  0  0  0  0  0  0  0  0
    4.9110    1.2370    1.1320 C   0  0  0  0  0  0  0  0  0  0  0  0
    6.2390    1.4710    0.5220 C   0  0  0  0  0  0  0  0  0  0  0  0
   -0.3440   -1.1200   -2.2260 O   0  0  0  0  0  0  0  0  0  0  0  0
    1.6890   -3.5210   -1.8590 O   0  0  0  0  0  0  0  0  0  0  0  0
    4.6190    1.9140    2.1140 O   0  0  0  0  0  0  0  0  0  0  0  0
    6.3460    1.8980   -0.8060 C   0  0  0  0  0  0  0  0  0  0  0  0
    5.4580    2.0590   -1.4110 H   0  0  0  0  0  0  0  0  0  0  0  0
    7.6070    2.1350   -1.3520 C   0  0  0  0  0  0  0  0  0  0  0  0
    7.6990    2.4630   -2.3850 H   0  0  0  0  0  0  0  0  0  0  0  0
    8.7510    1.9620   -0.5710 C   0  0  0  0  0  0  0  0  0  0  0  0
    9.7330    2.1510   -0.9980 H   0  0  0  0  0  0  0  0  0  0  0  0
    8.6390    1.5590    0.7620 C   0  0  0  0  0  0  0  0  0  0  0  0
    9.5320    1.4390    1.3700 H   0  0  0  0  0  0  0  0  0  0  0  0
    7.3810    1.3190    1.3140 C   0  0  0  0  0  0  0  0  0  0  0  0
    7.2930    1.0170    2.3550 H   0  0  0  0  0  0  0  0  0  0  0  0
   -5.0050   -4.1630    1.6980 C   0  0  0  0  0  0  0  0  0  0  0  0
   -6.2690   -4.3700    2.2090 C   0  0  0  0  0  0  0  0  0  0  0  0
   -7.1750   -3.8170    2.0020 H   0  0  0  0  0  0  0  0  0  0  0  0
   -6.2670   -5.4330    3.0760 N   0  0  0  0  0  0  0  0  0  0  0  0
   -5.0170   -5.8310    3.0630 C   0  0  0  0  0  0  0  0  0  0  0  0
   -4.5710   -6.6490    3.6100 H   0  0  0  0  0  0  0  0  0  0  0  0
   -4.1880   -5.1160    2.2560 O   0  0  0  0  0  0  0  0  0  0  0  0
  1  2  1  0  0  0  0
  1  3  1  0  0  0  0
  1  8  2  0  0  0  0
  3  4  1  0  0  0  0
  3  5  2  0  0  0  0
  5  6  1  0  0  0  0
  5 45  1  0  0  0  0
  6  7  2  0  0  0  0
  6  9  1  0  0  0  0
  7  8  1  0  0  0  0
  7 13  1  0  0  0  0
  9 10  1  0  0  0  0
  9 11  1  0  0  0  0
 11 12  1  0  0  0  0
 11 13  2  0  0  0  0
 13 14  1  0  0  0  0
 14 15  1  0  0  0  0
 14 32  2  0  0  0  0
 15 16  1  0  0  0  0
 15 33  2  0  0  0  0
 16 17  1  0  0  0  0
 16 27  1  0  0  0  0
 17 18  1  0  0  0  0
 17 19  1  0  0  0  0
 17 20  1  0  0  0  0
 20 21  1  0  0  0  0
 20 22  1  0  0  0  0
 20 23  1  0  0  0  0
 23 24  1  0  0  0  0
 23 30  1  0  0  0  0
 24 25  1  0  0  0  0
 24 26  1  0  0  0  0
 24 27  1  0  0  0  0
 27 28  1  0  0  0  0
 27 29  1  0  0  0  0
 30 31  1  0  0  0  0
 30 34  2  0  0  0  0
 31 35  1  0  0  0  0
 31 43  2  0  0  0  0
 35 36  1  0  0  0  0
 35 37  2  0  0  0  0
 37 38  1  0  0  0  0
 37 39  1  0  0  0  0
 39 40  1  0  0  0  0
 39 41  2  0  0  0  0
 41 42  1  0  0  0  0
 41 43  1  0  0  0  0
 43 44  1  0  0  0  0
 45 46  2  0  0  0  0
 45 51  1  0  0  0  0
 46 47  1  0  0  0  0
 46 48  1  0  0  0  0
 48 49  2  0  0  0  0
 49 50  1  0  0  0  0
 49 51  1  0  0  0  0
M  END
>  <Activity>
9.4089

>  <AM1_dipole>
4.60667

>  <AM1_E>
-127261

>  <AM1_Eele>
-977333

>  <AM1_HF>
31.5945

>  <AM1_HOMO>
-9.20535

>  <AM1_IP>
9.20535

>  <AM1_LUMO>
-1.22022

>  <diameter>
17

>  <petitjean>
0.470588

>  <petitjeanSC>
0.888889

>  <radius>
9

>  <VDistEq>
3.84504

>  <VDistMa>
9.6768

>  <weinerPath>
3225

>  <weinerPol>
53

>  <BCUT_PEOE_0>
-2.71185

>  <BCUT_PEOE_1>
-0.634974

>  <BCUT_PEOE_2>
0.692002

>  <BCUT_PEOE_3>
2.65034

>  <BCUT_SLOGP_0>
-2.86001

>  <BCUT_SLOGP_1>
-0.547475

>  <BCUT_SLOGP_2>
0.805973

>  <BCUT_SLOGP_3>
2.50324

>  <BCUT_SMR_0>
-2.43203

>  <BCUT_SMR_1>
-0.447647

>  <BCUT_SMR_2>
0.870358

>  <BCUT_SMR_3>
2.92018

>  <GCUT_PEOE_0>
-0.855011

>  <GCUT_PEOE_1>
-0.41114

>  <GCUT_PEOE_2>
0.0824102

>  <GCUT_PEOE_3>
2.67971

>  <GCUT_SLOGP_0>
-0.976498

>  <GCUT_SLOGP_1>
-0.323713

>  <GCUT_SLOGP_2>
0.171179

>  <GCUT_SLOGP_3>
2.66852

>  <GCUT_SMR_0>
-0.50891

>  <GCUT_SMR_1>
-0.213503

>  <GCUT_SMR_2>
0.242245

>  <GCUT_SMR_3>
2.9517

>  <a_aro>
20

>  <a_count>
51

>  <a_IC>
84.9315

>  <a_ICM>
1.66532

>  <a_nH>
19

>  <b_1rotN>
6

>  <b_1rotR>
0.166667

>  <b_ar>
21

>  <b_count>
55

>  <b_double>
3

>  <b_rotN>
6

>  <b_rotR>
0.166667

>  <b_single>
31

>  <b_triple>
0

>  <chi0v>
17.0238

>  <chi0v_C>
13.1019

>  <chi1v>
10.1612

>  <chi1v_C>
5.86004

>  <chiral>
0

>  <chiral_u>
0

>  <nmol>
1

>  <reactive>
0

>  <rings>
5

>  <Weight>
429.436

>  <a_heavy>
32

>  <a_nB>
0

>  <a_nBr>
0

>  <a_nC>
23

>  <a_nCl>
0

>  <a_nF>
0

>  <a_nI>
0

>  <a_nN>
5

>  <a_nO>
4

>  <a_nP>
0

>  <a_nS>
0

>  <b_heavy>
36

>  <chi0>
22.0788

>  <chi0_C>
15.0956

>  <chi1>
15.631

>  <chi1_C>
7.87457

>  <FCharge>
0

>  <VAdjEq>
0.367089

>  <VAdjMa>
6.16993

>  <zagreb>
174

>  <balabanJ>
1.13771

>  <PEOE_PC+>
3.07058

>  <PEOE_PC->
-3.07058

>  <PEOE_RPC+>
0.0961224

>  <PEOE_RPC->
0.144086

>  <PEOE_VSA+0>
90.6782

>  <PEOE_VSA+1>
98.1656

>  <PEOE_VSA+2>
10.9649

>  <PEOE_VSA+3>
40.0734

>  <PEOE_VSA+4>
0

>  <PEOE_VSA+5>
34.3576

>  <PEOE_VSA+6>
0

>  <PEOE_VSA-0>
36.7647

>  <PEOE_VSA-1>
36.7647

>  <PEOE_VSA-2>
0

>  <PEOE_VSA-3>
0

>  <PEOE_VSA-4>
5.68258

>  <PEOE_VSA-5>
46.3833

>  <PEOE_VSA-6>
2.64065

>  <PEOE_VSA_FHYD>
0.778709

>  <PEOE_VSA_FNEG>
0.318618

>  <PEOE_VSA_FPNEG>
0.135925

>  <PEOE_VSA_FPOL>
0.221291

>  <PEOE_VSA_FPOS>
0.681382

>  <PEOE_VSA_FPPOS>
0.0853656

>  <PEOE_VSA_HYD>
313.412

>  <PEOE_VSA_NEG>
128.236

>  <PEOE_VSA_PNEG>
54.7066

>  <PEOE_VSA_POL>
89.0641

>  <PEOE_VSA_POS>
274.24

>  <PEOE_VSA_PPOS>
34.3576

>  <PC+>
5.88

>  <PC->
-5.881

>  <Q_PC+>
5.88

>  <Q_PC->
-5.881

>  <Q_RPC+>
0.111565

>  <Q_RPC->
0.112226

>  <Q_VSA_FHYD>
0.511133

>  <Q_VSA_FNEG>
0.382018

>  <Q_VSA_FPNEG>
0.177192

>  <Q_VSA_FPOL>
0.488867

>  <Q_VSA_FPOS>
0.617982

>  <Q_VSA_FPPOS>
0.311674

>  <Q_VSA_HYD>
205.719

>  <Q_VSA_NEG>
153.753

>  <Q_VSA_PNEG>
71.3156

>  <Q_VSA_POL>
196.757

>  <Q_VSA_POS>
248.723

>  <Q_VSA_PPOS>
125.441

>  <RPC+>
0.111565

>  <RPC->
0.112226

>  <lip_acc>
9

>  <lip_don>
1

>  <lip_druglike>
1

>  <lip_violation>
0

>  <opr_brigid>
27

>  <opr_leadlike>
0

>  <opr_nring>
5

>  <opr_nrot>
6

>  <opr_violation>
2

>  <E>
94.9351

>  <E_ang>
7.51449

>  <E_ele>
26.8158

>  <E_nb>
77.0697

>  <E_oop>
0.0717272

>  <E_sol>
-22.6574

>  <E_stb>
1.0466

>  <E_str>
5.21172

>  <E_strain>
0.00639656

>  <E_tor>
4.02082

>  <E_vdw>
50.254

>  <E_rele>
0

>  <E_rnb>
1.77636e-014

>  <E_rsol>
1.77636e-014

>  <E_rvdw>
0

>  <Kier1>
23.7284

>  <Kier2>
10.7266

>  <Kier3>
5.03472

>  <KierA1>
16.0458

>  <KierA2>
7.15413

>  <KierA3>
3.32526

>  <KierFlex>
3.5873

>  <logS>
-3.94996

>  <MNDO_dipole>
4.42603

>  <MNDO_E>
-127543

>  <MNDO_Eele>
-970701

>  <MNDO_HF>
11.6435

>  <MNDO_HOMO>
-9.2871

>  <MNDO_IP>
9.2871

>  <MNDO_LUMO>
-1.10919

>  <apol>
61.8571

>  <bpol>
32.8209

>  <mr>
11.7293

>  <dipole>
0.826898

>  <dipoleX>
0.230838

>  <dipoleY>
-0.65594

>  <dipoleZ>
0.447455

>  <pmi>
12390.5

>  <pmiX>
9091.06

>  <pmiY>
2449.75

>  <pmiZ>
849.729

>  <rgyr>
5.3715

>  <a_acc>
5

>  <a_acid>
0

>  <a_base>
0

>  <a_don>
1

>  <a_hyd>
18

>  <vsa_acc>
52.0659

>  <vsa_acid>
0

>  <vsa_base>
0

>  <vsa_don>
5.68258

>  <vsa_hyd>
256.972

>  <vsa_other>
71.8693

>  <vsa_pol>
57.7485

>  <PM3_dipole>
3.96314

>  <PM3_E>
-115332

>  <PM3_Eele>
-957116

>  <PM3_HF>
-21.3509

>  <PM3_HOMO>
-9.10566

>  <PM3_IP>
9.10566

>  <PM3_LUMO>
-1.21808

>  <SlogP>
2.3852

>  <SlogP_VSA0>
0

>  <SlogP_VSA1>
56.0249

>  <SlogP_VSA2>
40.6477

>  <SlogP_VSA3>
73.7583

>  <SlogP_VSA4>
54.0956

>  <SlogP_VSA5>
9.50735

>  <SlogP_VSA6>
0

>  <SlogP_VSA7>
189.902

>  <SlogP_VSA8>
0

>  <SlogP_VSA9>
0

>  <SMR>
11.4847

>  <SMR_VSA0>
81.094

>  <SMR_VSA1>
39.8197

>  <SMR_VSA2>
16.7855

>  <SMR_VSA3>
6.37115

>  <SMR_VSA4>
12.9227

>  <SMR_VSA5>
176.98

>  <SMR_VSA6>
89.9635

>  <SMR_VSA7>
0

>  <ASA>
691.698

>  <ASA+>
352.173

>  <ASA->
235.799

>  <ASA_H>
465.384

>  <ASA_P>
226.314

>  <CASA+>
2070.78

>  <CASA->
1386.73

>  <DASA>
116.374

>  <DCASA>
684.046

>  <FASA+>
0.509144

>  <FASA->
0.340899

>  <FASA_H>
0.672814

>  <FASA_P>
0.327186

>  <FCASA+>
2.99376

>  <FCASA->
2.00483

>  <VSA>
427.062

>  <TPSA>
112.4

>  <density>
0.780552

>  <vdw_area>
402.476

>  <vdw_vol>
550.169

>  <vsurf_A>
2.2819

>  <vsurf_CP>
0.0872432

>  <vsurf_CW1>
2.69501

>  <vsurf_CW2>
2.24365

>  <vsurf_CW3>
1.43584

>  <vsurf_CW4>
0.658006

>  <vsurf_CW5>
0.330937

>  <vsurf_CW6>
0.146511

>  <vsurf_CW7>
0.0386695

>  <vsurf_CW8>
0.01874

>  <vsurf_D1>
994.125

>  <vsurf_D2>
590.25

>  <vsurf_D3>
440

>  <vsurf_D4>
368.5

>  <vsurf_D5>
315.125

>  <vsurf_D6>
255.375

>  <vsurf_D7>
160.375

>  <vsurf_D8>
94.5

>  <vsurf_DD12>
3.20156

>  <vsurf_DD13>
2.91548

>  <vsurf_DD23>
0.5

>  <vsurf_DW12>
0.5

>  <vsurf_DW13>
0.5

>  <vsurf_DW23>
0.707107

>  <vsurf_EDmin1>
-2.81635

>  <vsurf_EDmin2>
-2.73149

>  <vsurf_EDmin3>
-2.71076

>  <vsurf_EWmin1>
-8.40646

>  <vsurf_EWmin2>
-8.28487

>  <vsurf_EWmin3>
-8.06141

>  <vsurf_G>
1.38792

>  <vsurf_HB1>
415.375

>  <vsurf_HB2>
465.125

>  <vsurf_HB3>
402

>  <vsurf_HB4>
166.125

>  <vsurf_HB5>
69

>  <vsurf_HB6>
26.25

>  <vsurf_HB7>
7.5

>  <vsurf_HB8>
3

>  <vsurf_HL1>
0.166477

>  <vsurf_HL2>
0.0736092

>  <vsurf_ID1>
0.459224

>  <vsurf_ID2>
0.375312

>  <vsurf_ID3>
0.537211

>  <vsurf_ID4>
0.823233

>  <vsurf_ID5>
1.05635

>  <vsurf_ID6>
0.990409

>  <vsurf_ID7>
0.592323

>  <vsurf_ID8>
1.10509

>  <vsurf_IW1>
0.489895

>  <vsurf_IW2>
1.00934

>  <vsurf_IW3>
1.14971

>  <vsurf_IW4>
1.40854

>  <vsurf_IW5>
1.76678

>  <vsurf_IW6>
2.44991

>  <vsurf_IW7>
4.4711

>  <vsurf_IW8>
5.08333

>  <vsurf_R>
1.44337

>  <vsurf_S>
629.949

>  <vsurf_V>
909.25

>  <vsurf_W1>
1602

>  <vsurf_W2>
970.125

>  <vsurf_W3>
493.75

>  <vsurf_W4>
177

>  <vsurf_W5>
73.25

>  <vsurf_W6>
27.125

>  <vsurf_W7>
7.5

>  <vsurf_W8>
3

>  <vsurf_Wp1>
1186.63

>  <vsurf_Wp2>
505

>  <vsurf_Wp3>
91.75

>  <vsurf_Wp4>
10.875

>  <vsurf_Wp5>
4.25

>  <vsurf_Wp6>
0.875

>  <vsurf_Wp7>
0

>  <vsurf_Wp8>
0

>  <dens>
1.09445

>  <glob>
0.0514826

>  <std_dim1>
5.27086

>  <std_dim2>
1.46431

>  <std_dim3>
1.19595

>  <vol>
392.375

>  <logP(o/w)>
0.73153

$$$$
D15.cdx
  MOE2008           3D

 52 55  0  0  0  0  0  0  0  0999 V2000
   -5.4650   -7.0990    0.6800 C   0  0  0  0  0  0  0  0  0  0  0  0
   -6.2860   -6.4130    0.8710 H   0  0  0  0  0  0  0  0  0  0  0  0
   -5.7800   -8.1820   -0.0670 N   0  0  0  0  0  0  0  0  0  0  0  0
   -4.7990   -9.0870   -0.3500 C   0  0  0  0  0  0  0  0  0  0  0  0
   -3.5110   -8.8630    0.1450 C   0  0  0  0  0  0  0  0  0  0  0  0
   -3.1780   -7.7460    0.9150 C   0  0  0  0  0  0  0  0  0  0  0  0
   -4.2040   -6.8270    1.1910 C   0  0  0  0  0  0  0  0  0  0  0  0
   -2.3710   -9.6180   -0.0010 N   0  0  0  0  0  0  0  0  0  0  0  0
   -2.3380  -10.4910   -0.5190 H   0  0  0  0  0  0  0  0  0  0  0  0
   -1.3250   -9.0180    0.6450 C   0  0  0  0  0  0  0  0  0  0  0  0
   -0.3460   -9.4810    0.6310 H   0  0  0  0  0  0  0  0  0  0  0  0
   -1.7790   -7.8470    1.2290 C   0  0  0  0  0  0  0  0  0  0  0  0
   -0.9510   -6.9150    1.9890 C   0  0  0  0  0  0  0  0  0  0  0  0
    0.5390   -7.1670    2.1290 C   0  0  0  0  0  0  0  0  0  0  0  0
    1.3620   -6.6340    1.1400 N   0  0  0  0  0  0  0  0  0  0  0  0
    2.8050   -6.8690    1.1920 C   0  0  0  0  0  0  0  0  0  0  0  0
    3.0880   -7.3790    2.1180 H   0  0  0  0  0  0  0  0  0  0  0  0
    3.0430   -7.5420    0.3580 H   0  0  0  0  0  0  0  0  0  0  0  0
    3.6020   -5.5640    1.0490 C   0  0  0  0  0  0  0  0  0  0  0  0
    4.6620   -5.8080    0.9640 H   0  0  0  0  0  0  0  0  0  0  0  0
    3.4630   -4.9370    1.9370 H   0  0  0  0  0  0  0  0  0  0  0  0
    3.1280   -4.7800   -0.1040 N   0  0  0  0  0  0  0  0  0  0  0  0
    1.6840   -4.5350   -0.1300 C   0  0  0  0  0  0  0  0  0  0  0  0
    1.4590   -3.8840    0.7240 H   0  0  0  0  0  0  0  0  0  0  0  0
    1.3860   -4.0020   -1.0380 H   0  0  0  0  0  0  0  0  0  0  0  0
    0.8970   -5.8430   -0.0100 C   0  0  0  0  0  0  0  0  0  0  0  0
    1.0560   -6.4620   -0.9010 H   0  0  0  0  0  0  0  0  0  0  0  0
   -0.1710   -5.6220    0.0540 H   0  0  0  0  0  0  0  0  0  0  0  0
    3.9180   -4.2850   -1.1390 C   0  0  0  0  0  0  0  0  0  0  0  0
    5.3900   -4.3460   -1.0080 C   0  0  0  0  0  0  0  0  0  0  0  0
   -1.3850   -5.8950    2.5130 O   0  0  0  0  0  0  0  0  0  0  0  0
    0.9150   -7.8250    3.0920 O   0  0  0  0  0  0  0  0  0  0  0  0
    3.4710   -3.7940   -2.1720 O   0  0  0  0  0  0  0  0  0  0  0  0
   -4.0170   -5.7160    1.9140 F   0  0  0  0  0  0  0  0  0  0  0  0
    6.0360   -3.6760    0.0370 C   0  0  0  0  0  0  0  0  0  0  0  0
    5.4650   -3.1200    0.7750 H   0  0  0  0  0  0  0  0  0  0  0  0
    7.4280   -3.7200    0.1240 C   0  0  0  0  0  0  0  0  0  0  0  0
    7.9390   -3.2070    0.9350 H   0  0  0  0  0  0  0  0  0  0  0  0
    8.1660   -4.4140   -0.8370 C   0  0  0  0  0  0  0  0  0  0  0  0
    9.2510   -4.4430   -0.7690 H   0  0  0  0  0  0  0  0  0  0  0  0
    7.5190   -5.0610   -1.8920 C   0  0  0  0  0  0  0  0  0  0  0  0
    8.1000   -5.5890   -2.6440 H   0  0  0  0  0  0  0  0  0  0  0  0
    6.1280   -5.0230   -1.9840 C   0  0  0  0  0  0  0  0  0  0  0  0
    5.6230   -5.5160   -2.8110 H   0  0  0  0  0  0  0  0  0  0  0  0
   -5.1830  -10.2610   -1.1800 C   0  0  0  0  0  0  0  0  0  0  0  0
   -6.5100  -10.2910   -1.5460 N   0  0  0  0  0  0  0  0  0  0  0  0
   -7.0870   -9.5190   -1.2160 H   0  0  0  0  0  0  0  0  0  0  0  0
   -4.3310  -11.0920   -1.4780 O   0  0  0  0  0  0  0  0  0  0  0  0
   -7.0940  -11.3340   -2.3490 C   0  0  0  0  0  0  0  0  0  0  0  0
   -6.3530  -12.0850   -2.6300 H   0  0  0  0  0  0  0  0  0  0  0  0
   -7.5170  -10.8770   -3.2480 H   0  0  0  0  0  0  0  0  0  0  0  0
   -7.8960  -11.8020   -1.7720 H   0  0  0  0  0  0  0  0  0  0  0  0
  1  2  1  0  0  0  0
  1  3  1  0  0  0  0
  1  7  2  0  0  0  0
  3  4  2  0  0  0  0
  4  5  1  0  0  0  0
  4 45  1  0  0  0  0
  5  6  2  0  0  0  0
  5  8  1  0  0  0  0
  6  7  1  0  0  0  0
  6 12  1  0  0  0  0
  7 34  1  0  0  0  0
  8  9  1  0  0  0  0
  8 10  1  0  0  0  0
 10 11  1  0  0  0  0
 10 12  2  0  0  0  0
 12 13  1  0  0  0  0
 13 14  1  0  0  0  0
 13 31  2  0  0  0  0
 14 15  1  0  0  0  0
 14 32  2  0  0  0  0
 15 16  1  0  0  0  0
 15 26  1  0  0  0  0
 16 17  1  0  0  0  0
 16 18  1  0  0  0  0
 16 19  1  0  0  0  0
 19 20  1  0  0  0  0
 19 21  1  0  0  0  0
 19 22  1  0  0  0  0
 22 23  1  0  0  0  0
 22 29  1  0  0  0  0
 23 24  1  0  0  0  0
 23 25  1  0  0  0  0
 23 26  1  0  0  0  0
 26 27  1  0  0  0  0
 26 28  1  0  0  0  0
 29 30  1  0  0  0  0
 29 33  2  0  0  0  0
 30 35  1  0  0  0  0
 30 43  2  0  0  0  0
 35 36  1  0  0  0  0
 35 37  2  0  0  0  0
 37 38  1  0  0  0  0
 37 39  1  0  0  0  0
 39 40  1  0  0  0  0
 39 41  2  0  0  0  0
 41 42  1  0  0  0  0
 41 43  1  0  0  0  0
 43 44  1  0  0  0  0
 45 46  1  0  0  0  0
 45 48  2  0  0  0  0
 46 47  1  0  0  0  0
 46 49  1  0  0  0  0
 49 50  1  0  0  0  0
 49 51  1  0  0  0  0
 49 52  1  0  0  0  0
M  END
>  <Activity>
10.0457

>  <AM1_dipole>
3.6232

>  <AM1_E>
-135859

>  <AM1_Eele>
-1.03084e+006

>  <AM1_HF>
-67.7759

>  <AM1_HOMO>
-9.24712

>  <AM1_IP>
9.24712

>  <AM1_LUMO>
-1.18081

>  <diameter>
17

>  <petitjean>
0.470588

>  <petitjeanSC>
0.888889

>  <radius>
9

>  <VDistEq>
3.81056

>  <VDistMa>
9.6837

>  <weinerPath>
3172

>  <weinerPol>
56

>  <BCUT_PEOE_0>
-2.71188

>  <BCUT_PEOE_1>
-0.634027

>  <BCUT_PEOE_2>
0.621198

>  <BCUT_PEOE_3>
2.65032

>  <BCUT_SLOGP_0>
-2.86001

>  <BCUT_SLOGP_1>
-0.53808

>  <BCUT_SLOGP_2>
0.695044

>  <BCUT_SLOGP_3>
2.50322

>  <BCUT_SMR_0>
-2.43203

>  <BCUT_SMR_1>
-0.418531

>  <BCUT_SMR_2>
0.795427

>  <BCUT_SMR_3>
2.92025

>  <GCUT_PEOE_0>
-0.855478

>  <GCUT_PEOE_1>
-0.411695

>  <GCUT_PEOE_2>
0.080099

>  <GCUT_PEOE_3>
2.68656

>  <GCUT_SLOGP_0>
-1.16074

>  <GCUT_SLOGP_1>
-0.350363

>  <GCUT_SLOGP_2>
0.164454

>  <GCUT_SLOGP_3>
2.64712

>  <GCUT_SMR_0>
-0.508924

>  <GCUT_SMR_1>
-0.216057

>  <GCUT_SMR_2>
0.193051

>  <GCUT_SMR_3>
2.95321

>  <a_aro>
15

>  <a_count>
52

>  <a_IC>
92.2672

>  <a_ICM>
1.77437

>  <a_nH>
20

>  <b_1rotN>
6

>  <b_1rotR>
0.171429

>  <b_ar>
16

>  <b_count>
55

>  <b_double>
4

>  <b_rotN>
7

>  <b_rotR>
0.2

>  <b_single>
35

>  <b_triple>
0

>  <chi0v>
17.2225

>  <chi0v_C>
12.8699

>  <chi1v>
9.97612

>  <chi1v_C>
5.48803

>  <chiral>
0

>  <chiral_u>
0

>  <nmol>
1

>  <reactive>
0

>  <rings>
4

>  <Weight>
437.431

>  <a_heavy>
32

>  <a_nB>
0

>  <a_nBr>
0

>  <a_nC>
22

>  <a_nCl>
0

>  <a_nF>
1

>  <a_nI>
0

>  <a_nN>
5

>  <a_nO>
4

>  <a_nP>
0

>  <a_nS>
0

>  <b_heavy>
35

>  <chi0>
22.8277

>  <chi0_C>
14.5517

>  <chi1>
15.4179

>  <chi1_C>
7.29966

>  <FCharge>
0

>  <VAdjEq>
0.359771

>  <VAdjMa>
6.12928

>  <zagreb>
170

>  <balabanJ>
1.3244

>  <PEOE_PC+>
3.18858

>  <PEOE_PC->
-3.18858

>  <PEOE_RPC+>
0.0925493

>  <PEOE_RPC->
0.112306

>  <PEOE_VSA+0>
109.967

>  <PEOE_VSA+1>
89.6348

>  <PEOE_VSA+2>
0

>  <PEOE_VSA+3>
32.9584

>  <PEOE_VSA+4>
0

>  <PEOE_VSA+5>
47.3071

>  <PEOE_VSA+6>
0

>  <PEOE_VSA-0>
24.5098

>  <PEOE_VSA-1>
36.7647

>  <PEOE_VSA-2>
0

>  <PEOE_VSA-3>
0

>  <PEOE_VSA-4>
17.5912

>  <PEOE_VSA-5>
54.2677

>  <PEOE_VSA-6>
0.273782

>  <PEOE_VSA_FHYD>
0.710992

>  <PEOE_VSA_FNEG>
0.322805

>  <PEOE_VSA_FPNEG>
0.174539

>  <PEOE_VSA_FPOL>
0.289008

>  <PEOE_VSA_FPOS>
0.677195

>  <PEOE_VSA_FPPOS>
0.114469

>  <PEOE_VSA_HYD>
293.835

>  <PEOE_VSA_NEG>
133.407

>  <PEOE_VSA_PNEG>
72.1327

>  <PEOE_VSA_POL>
119.44

>  <PEOE_VSA_POS>
279.867

>  <PEOE_VSA_PPOS>
47.3071

>  <PC+>
6.429

>  <PC->
-6.43

>  <Q_PC+>
6.429

>  <Q_PC->
-6.43

>  <Q_RPC+>
0.102038

>  <Q_RPC->
0.11353

>  <Q_VSA_FHYD>
0.45778

>  <Q_VSA_FNEG>
0.384549

>  <Q_VSA_FPNEG>
0.185913

>  <Q_VSA_FPOL>
0.54222

>  <Q_VSA_FPOS>
0.615451

>  <Q_VSA_FPPOS>
0.356307

>  <Q_VSA_HYD>
189.189

>  <Q_VSA_NEG>
158.924

>  <Q_VSA_PNEG>
76.8331

>  <Q_VSA_POL>
224.086

>  <Q_VSA_POS>
254.35

>  <Q_VSA_PPOS>
147.253

>  <RPC+>
0.102038

>  <RPC->
0.11353

>  <lip_acc>
9

>  <lip_don>
2

>  <lip_druglike>
1

>  <lip_violation>
0

>  <opr_brigid>
22

>  <opr_leadlike>
1

>  <opr_nring>
4

>  <opr_nrot>
6

>  <opr_violation>
1

>  <E>
101.085

>  <E_ang>
9.49512

>  <E_ele>
35.0084

>  <E_nb>
86.1228

>  <E_oop>
0.053615

>  <E_sol>
-23.3263

>  <E_stb>
1.2417

>  <E_str>
6.08221

>  <E_strain>
0.00621635

>  <E_tor>
-1.91091

>  <E_vdw>
51.1144

>  <E_rele>
0

>  <E_rnb>
5.68434e-014

>  <E_rsol>
5.68434e-014

>  <E_rvdw>
0

>  <Kier1>
25.1037

>  <Kier2>
11.16

>  <Kier3>
5.32653

>  <KierA1>
17.0336

>  <KierA2>
7.46946

>  <KierA3>
3.53074

>  <KierFlex>
3.97599

>  <logS>
-3.36548

>  <MNDO_dipole>
4.00618

>  <MNDO_E>
-136008

>  <MNDO_Eele>
-1.02197e+006

>  <MNDO_HF>
-89.0987

>  <MNDO_HOMO>
-9.43441

>  <MNDO_IP>
9.43441

>  <MNDO_LUMO>
-1.29058

>  <apol>
61.3209

>  <bpol>
33.4991

>  <mr>
11.5066

>  <dipole>
0.575952

>  <dipoleX>
0.304979

>  <dipoleY>
-0.417845

>  <dipoleZ>
-0.253207

>  <pmi>
11861.9

>  <pmiX>
8714.48

>  <pmiY>
2216.6

>  <pmiZ>
930.804

>  <rgyr>
5.20742

>  <a_acc>
5

>  <a_acid>
0

>  <a_base>
0

>  <a_don>
2

>  <a_hyd>
19

>  <vsa_acc>
59.9503

>  <vsa_acid>
0

>  <vsa_base>
0

>  <vsa_don>
11.3652

>  <vsa_hyd>
275.693

>  <vsa_other>
47.3071

>  <vsa_pol>
71.3154

>  <PM3_dipole>
3.76215

>  <PM3_E>
-123145

>  <PM3_Eele>
-1.0148e+006

>  <PM3_HF>
-108.787

>  <PM3_HOMO>
-9.25625

>  <PM3_IP>
9.25625

>  <PM3_LUMO>
-1.27402

>  <SlogP>
1.2289

>  <SlogP_VSA0>
18.0107

>  <SlogP_VSA1>
44.4981

>  <SlogP_VSA2>
49.7688

>  <SlogP_VSA3>
73.7583

>  <SlogP_VSA4>
80.7145

>  <SlogP_VSA5>
32.8972

>  <SlogP_VSA6>
0

>  <SlogP_VSA7>
127.362

>  <SlogP_VSA8>
0

>  <SlogP_VSA9>
14.9601

>  <SMR>
11.2698

>  <SMR_VSA0>
95.4489

>  <SMR_VSA1>
37.9943

>  <SMR_VSA2>
43.9173

>  <SMR_VSA3>
9.1279

>  <SMR_VSA4>
4.7171

>  <SMR_VSA5>
122.645

>  <SMR_VSA6>
95.2223

>  <SMR_VSA7>
32.8972

>  <ASA>
695.089

>  <ASA+>
294.273

>  <ASA->
235.023

>  <ASA_H>
457.563

>  <ASA_P>
237.526

>  <CASA+>
1891.88

>  <CASA->
1511.2

>  <DASA>
59.2507

>  <DCASA>
380.688

>  <FASA+>
0.423361

>  <FASA->
0.338119

>  <FASA_H>
0.65828

>  <FASA_P>
0.34172

>  <FCASA+>
2.72179

>  <FCASA->
2.1741

>  <VSA>
432.206

>  <TPSA>
115.47

>  <density>
0.801107

>  <vdw_area>
413.275

>  <vdw_vol>
546.033

>  <vsurf_A>
3.36668

>  <vsurf_CP>
0.0677854

>  <vsurf_CW1>
2.65402

>  <vsurf_CW2>
2.16732

>  <vsurf_CW3>
1.55584

>  <vsurf_CW4>
0.773311

>  <vsurf_CW5>
0.37592

>  <vsurf_CW6>
0.140818

>  <vsurf_CW7>
0.041374

>  <vsurf_CW8>
0.0171572

>  <vsurf_D1>
901.875

>  <vsurf_D2>
530.75

>  <vsurf_D3>
395.875

>  <vsurf_D4>
330.625

>  <vsurf_D5>
278.625

>  <vsurf_D6>
210

>  <vsurf_D7>
124.25

>  <vsurf_D8>
74.5

>  <vsurf_DD12>
0.707107

>  <vsurf_DD13>
5.31507

>  <vsurf_DD23>
5.72276

>  <vsurf_DW12>
0.5

>  <vsurf_DW13>
1.22474

>  <vsurf_DW23>
0.866025

>  <vsurf_EDmin1>
-2.83099

>  <vsurf_EDmin2>
-2.73082

>  <vsurf_EDmin3>
-2.71541

>  <vsurf_EWmin1>
-8.03029

>  <vsurf_EWmin2>
-7.98215

>  <vsurf_EWmin3>
-7.66841

>  <vsurf_G>
1.39635

>  <vsurf_HB1>
381.125

>  <vsurf_HB2>
473.75

>  <vsurf_HB3>
426

>  <vsurf_HB4>
184.875

>  <vsurf_HB5>
75

>  <vsurf_HB6>
27.75

>  <vsurf_HB7>
8

>  <vsurf_HB8>
3

>  <vsurf_HL1>
0.203031

>  <vsurf_HL2>
0.08431

>  <vsurf_ID1>
1.16822

>  <vsurf_ID2>
1.09194

>  <vsurf_ID3>
1.21653

>  <vsurf_ID4>
1.50616

>  <vsurf_ID5>
1.88215

>  <vsurf_ID6>
2.6928

>  <vsurf_ID7>
1.60183

>  <vsurf_ID8>
0.707996

>  <vsurf_IW1>
0.207043

>  <vsurf_IW2>
0.911032

>  <vsurf_IW3>
1.62953

>  <vsurf_IW4>
1.96333

>  <vsurf_IW5>
2.3557

>  <vsurf_IW6>
3.61627

>  <vsurf_IW7>
6.1121

>  <vsurf_IW8>
8.00909

>  <vsurf_R>
1.43354

>  <vsurf_S>
632.787

>  <vsurf_V>
907.125

>  <vsurf_W1>
1552.13

>  <vsurf_W2>
982

>  <vsurf_W3>
547.25

>  <vsurf_W4>
204.75

>  <vsurf_W5>
80.375

>  <vsurf_W6>
27.875

>  <vsurf_W7>
8

>  <vsurf_W8>
3

>  <vsurf_Wp1>
1171

>  <vsurf_Wp2>
508.25

>  <vsurf_Wp3>
121.25

>  <vsurf_Wp4>
19.875

>  <vsurf_Wp5>
5.375

>  <vsurf_Wp6>
0.125

>  <vsurf_Wp7>
0

>  <vsurf_Wp8>
0

>  <dens>
1.1209

>  <glob>
0.0499657

>  <std_dim1>
5.26454

>  <std_dim2>
1.62367

>  <std_dim3>
1.17678

>  <vol>
390.25

>  <logP(o/w)>
0.45453

$$$$
D15.cdx
  MOE2008           3D

 49 52  0  0  0  0  0  0  0  0999 V2000
   -5.8920  -11.8150   -0.5120 C   0  0  0  0  0  0  0  0  0  0  0  0
   -6.8300  -11.2740   -0.5980 H   0  0  0  0  0  0  0  0  0  0  0  0
   -5.8650  -13.0230   -1.1210 N   0  0  0  0  0  0  0  0  0  0  0  0
   -4.7210  -13.7620   -1.0550 C   0  0  0  0  0  0  0  0  0  0  0  0
   -3.6230  -13.2460   -0.3610 C   0  0  0  0  0  0  0  0  0  0  0  0
   -3.6420  -11.9990    0.2700 C   0  0  0  0  0  0  0  0  0  0  0  0
   -4.8320  -11.2560    0.1870 C   0  0  0  0  0  0  0  0  0  0  0  0
   -2.3770  -13.7920   -0.1540 N   0  0  0  0  0  0  0  0  0  0  0  0
   -2.0940  -14.6990   -0.5120 H   0  0  0  0  0  0  0  0  0  0  0  0
   -1.6070  -12.9380    0.5860 C   0  0  0  0  0  0  0  0  0  0  0  0
   -0.5920  -13.2150    0.8450 H   0  0  0  0  0  0  0  0  0  0  0  0
   -2.3500  -11.8050    0.8700 C   0  0  0  0  0  0  0  0  0  0  0  0
   -1.8670  -10.6530    1.6270 C   0  0  0  0  0  0  0  0  0  0  0  0
   -0.4440  -10.6340    2.1630 C   0  0  0  0  0  0  0  0  0  0  0  0
    0.5380  -10.1180    1.3180 N   0  0  0  0  0  0  0  0  0  0  0  0
    1.9320  -10.1210    1.7610 C   0  0  0  0  0  0  0  0  0  0  0  0
    2.1060   -9.1590    2.2580 H   0  0  0  0  0  0  0  0  0  0  0  0
    2.0910  -10.9100    2.5040 H   0  0  0  0  0  0  0  0  0  0  0  0
    2.9070  -10.2930    0.5920 C   0  0  0  0  0  0  0  0  0  0  0  0
    2.7580  -11.2770    0.1330 H   0  0  0  0  0  0  0  0  0  0  0  0
    3.9380  -10.2370    0.9560 H   0  0  0  0  0  0  0  0  0  0  0  0
    2.6990   -9.2940   -0.4680 N   0  0  0  0  0  0  0  0  0  0  0  0
    1.3820   -8.6550   -0.5240 C   0  0  0  0  0  0  0  0  0  0  0  0
    1.4450   -7.7550    0.1010 H   0  0  0  0  0  0  0  0  0  0  0  0
    1.1640   -8.3290   -1.5460 H   0  0  0  0  0  0  0  0  0  0  0  0
    0.2610   -9.5650   -0.0140 C   0  0  0  0  0  0  0  0  0  0  0  0
    0.1410  -10.4210   -0.6890 H   0  0  0  0  0  0  0  0  0  0  0  0
   -0.6860   -9.0170    0.0010 H   0  0  0  0  0  0  0  0  0  0  0  0
    3.6660   -8.8970   -1.3900 C   0  0  0  0  0  0  0  0  0  0  0  0
    4.9660   -9.6050   -1.4090 C   0  0  0  0  0  0  0  0  0  0  0  0
   -2.5490   -9.6590    1.8520 O   0  0  0  0  0  0  0  0  0  0  0  0
   -0.2510  -11.0790    3.2890 O   0  0  0  0  0  0  0  0  0  0  0  0
    3.5170   -7.9770   -2.1890 O   0  0  0  0  0  0  0  0  0  0  0  0
   -4.9790  -10.0480    0.7440 F   0  0  0  0  0  0  0  0  0  0  0  0
    5.0320  -10.9660   -1.7230 C   0  0  0  0  0  0  0  0  0  0  0  0
    4.1310  -11.5280   -1.9510 H   0  0  0  0  0  0  0  0  0  0  0  0
    6.2720  -11.6040   -1.7570 C   0  0  0  0  0  0  0  0  0  0  0  0
    6.3360  -12.6620   -1.9970 H   0  0  0  0  0  0  0  0  0  0  0  0
    7.4380  -10.8800   -1.4950 C   0  0  0  0  0  0  0  0  0  0  0  0
    8.4030  -11.3780   -1.5260 H   0  0  0  0  0  0  0  0  0  0  0  0
    7.3690   -9.5160   -1.2060 C   0  0  0  0  0  0  0  0  0  0  0  0
    8.2810   -8.9540   -1.0160 H   0  0  0  0  0  0  0  0  0  0  0  0
    6.1330   -8.8720   -1.1690 C   0  0  0  0  0  0  0  0  0  0  0  0
    6.0800   -7.8070   -0.9550 H   0  0  0  0  0  0  0  0  0  0  0  0
   -4.7270  -15.0790   -1.7400 C   0  0  0  0  0  0  0  0  0  0  0  0
   -5.9010  -15.4200   -2.3580 N   0  0  0  0  0  0  0  0  0  0  0  0
   -5.9870  -16.3000   -2.8480 H   0  0  0  0  0  0  0  0  0  0  0  0
   -6.6900  -14.7820   -2.3220 H   0  0  0  0  0  0  0  0  0  0  0  0
   -3.7270  -15.7890   -1.7360 O   0  0  0  0  0  0  0  0  0  0  0  0
  1  2  1  0  0  0  0
  1  3  1  0  0  0  0
  1  7  2  0  0  0  0
  3  4  2  0  0  0  0
  4  5  1  0  0  0  0
  4 45  1  0  0  0  0
  5  6  2  0  0  0  0
  5  8  1  0  0  0  0
  6  7  1  0  0  0  0
  6 12  1  0  0  0  0
  7 34  1  0  0  0  0
  8  9  1  0  0  0  0
  8 10  1  0  0  0  0
 10 11  1  0  0  0  0
 10 12  2  0  0  0  0
 12 13  1  0  0  0  0
 13 14  1  0  0  0  0
 13 31  2  0  0  0  0
 14 15  1  0  0  0  0
 14 32  2  0  0  0  0
 15 16  1  0  0  0  0
 15 26  1  0  0  0  0
 16 17  1  0  0  0  0
 16 18  1  0  0  0  0
 16 19  1  0  0  0  0
 19 20  1  0  0  0  0
 19 21  1  0  0  0  0
 19 22  1  0  0  0  0
 22 23  1  0  0  0  0
 22 29  1  0  0  0  0
 23 24  1  0  0  0  0
 23 25  1  0  0  0  0
 23 26  1  0  0  0  0
 26 27  1  0  0  0  0
 26 28  1  0  0  0  0
 29 30  1  0  0  0  0
 29 33  2  0  0  0  0
 30 35  1  0  0  0  0
 30 43  2  0  0  0  0
 35 36  1  0  0  0  0
 35 37  2  0  0  0  0
 37 38  1  0  0  0  0
 37 39  1  0  0  0  0
 39 40  1  0  0  0  0
 39 41  2  0  0  0  0
 41 42  1  0  0  0  0
 41 43  1  0  0  0  0
 43 44  1  0  0  0  0
 45 46  1  0  0  0  0
 45 49  2  0  0  0  0
 46 47  1  0  0  0  0
 46 48  1  0  0  0  0
M  END
>  <Activity>
10.3979

>  <AM1_dipole>
3.88467

>  <AM1_E>
-132275

>  <AM1_Eele>
-986395

>  <AM1_HF>
-69.8931

>  <AM1_HOMO>
-9.28278

>  <AM1_IP>
9.28278

>  <AM1_LUMO>
-1.21067

>  <diameter>
16

>  <petitjean>
0.5

>  <petitjeanSC>
1

>  <radius>
8

>  <VDistEq>
3.76609

>  <VDistMa>
9.59108

>  <weinerPath>
2900

>  <weinerPol>
54

>  <BCUT_PEOE_0>
-2.71188

>  <BCUT_PEOE_1>
-0.642593

>  <BCUT_PEOE_2>
0.64679

>  <BCUT_PEOE_3>
2.65031

>  <BCUT_SLOGP_0>
-2.86001

>  <BCUT_SLOGP_1>
-0.53808

>  <BCUT_SLOGP_2>
0.763218

>  <BCUT_SLOGP_3>
2.50322

>  <BCUT_SMR_0>
-2.43203

>  <BCUT_SMR_1>
-0.418532

>  <BCUT_SMR_2>
0.854311

>  <BCUT_SMR_3>
2.92024

>  <GCUT_PEOE_0>
-0.854732

>  <GCUT_PEOE_1>
-0.41175

>  <GCUT_PEOE_2>
0.080099

>  <GCUT_PEOE_3>
2.67223

>  <GCUT_SLOGP_0>
-1.37032

>  <GCUT_SLOGP_1>
-0.350363

>  <GCUT_SLOGP_2>
0.164454

>  <GCUT_SLOGP_3>
2.63163

>  <GCUT_SMR_0>
-0.508914

>  <GCUT_SMR_1>
-0.216057

>  <GCUT_SMR_2>
0.21024

>  <GCUT_SMR_3>
2.93857

>  <a_aro>
15

>  <a_count>
49

>  <a_IC>
88.2138

>  <a_ICM>
1.80028

>  <a_nH>
18

>  <b_1rotN>
6

>  <b_1rotR>
0.176471

>  <b_ar>
16

>  <b_count>
52

>  <b_double>
4

>  <b_rotN>
6

>  <b_rotR>
0.176471

>  <b_single>
32

>  <b_triple>
0

>  <chi0v>
16.2998

>  <chi0v_C>
11.8699

>  <chi1v>
9.51479

>  <chi1v_C>
5.48803

>  <chiral>
0

>  <chiral_u>
0

>  <nmol>
1

>  <reactive>
0

>  <rings>
4

>  <Weight>
423.404

>  <a_heavy>
31

>  <a_nB>
0

>  <a_nBr>
0

>  <a_nC>
21

>  <a_nCl>
0

>  <a_nF>
1

>  <a_nI>
0

>  <a_nN>
5

>  <a_nO>
4

>  <a_nP>
0

>  <a_nS>
0

>  <b_heavy>
34

>  <chi0>
22.1206

>  <chi0_C>
13.5517

>  <chi1>
14.8799

>  <chi1_C>
7.29966

>  <FCharge>
0

>  <VAdjEq>
0.368752

>  <VAdjMa>
6.08746

>  <zagreb>
166

>  <balabanJ>
1.32114

>  <PEOE_PC+>
3.19961

>  <PEOE_PC->
-3.19961

>  <PEOE_RPC+>
0.0922302

>  <PEOE_RPC->
0.113935

>  <PEOE_VSA+0>
73.9323

>  <PEOE_VSA+1>
89.6348

>  <PEOE_VSA+2>
0

>  <PEOE_VSA+3>
41.5774

>  <PEOE_VSA+4>
0

>  <PEOE_VSA+5>
47.3071

>  <PEOE_VSA+6>
0

>  <PEOE_VSA-0>
24.5098

>  <PEOE_VSA-1>
36.7647

>  <PEOE_VSA-2>
0

>  <PEOE_VSA-3>
0

>  <PEOE_VSA-4>
17.5912

>  <PEOE_VSA-5>
54.2677

>  <PEOE_VSA-6>
6.78801

>  <PEOE_VSA_FHYD>
0.678994

>  <PEOE_VSA_FNEG>
0.356603

>  <PEOE_VSA_FPNEG>
0.200439

>  <PEOE_VSA_FPOL>
0.321006

>  <PEOE_VSA_FPOS>
0.643397

>  <PEOE_VSA_FPPOS>
0.120567

>  <PEOE_VSA_HYD>
266.419

>  <PEOE_VSA_NEG>
139.921

>  <PEOE_VSA_PNEG>
78.6469

>  <PEOE_VSA_POL>
125.954

>  <PEOE_VSA_POS>
252.452

>  <PEOE_VSA_PPOS>
47.3071

>  <PC+>
6.499

>  <PC->
-6.5

>  <Q_PC+>
6.499

>  <Q_PC->
-6.5

>  <Q_RPC+>
0.100939

>  <Q_RPC->
0.123077

>  <Q_VSA_FHYD>
0.449554

>  <Q_VSA_FNEG>
0.421636

>  <Q_VSA_FPNEG>
0.212418

>  <Q_VSA_FPOL>
0.550446

>  <Q_VSA_FPOS>
0.578364

>  <Q_VSA_FPPOS>
0.338028

>  <Q_VSA_HYD>
176.393

>  <Q_VSA_NEG>
165.439

>  <Q_VSA_PNEG>
83.3473

>  <Q_VSA_POL>
215.98

>  <Q_VSA_POS>
226.935

>  <Q_VSA_PPOS>
132.633

>  <RPC+>
0.100939

>  <RPC->
0.123077

>  <lip_acc>
9

>  <lip_don>
2

>  <lip_druglike>
1

>  <lip_violation>
0

>  <opr_brigid>
22

>  <opr_leadlike>
1

>  <opr_nring>
4

>  <opr_nrot>
6

>  <opr_violation>
1

>  <E>
103.073

>  <E_ang>
8.2566

>  <E_ele>
33.9665

>  <E_nb>
82.6551

>  <E_oop>
0.0514999

>  <E_sol>
-26.7185

>  <E_stb>
1.27661

>  <E_str>
5.97284

>  <E_strain>
0.00464494

>  <E_tor>
4.86061

>  <E_vdw>
48.6886

>  <E_rele>
0

>  <E_rnb>
-1.42109e-014

>  <E_rsol>
-1.42109e-014

>  <E_rvdw>
0

>  <Kier1>
24.1349

>  <Kier2>
10.5081

>  <Kier3>
5.08651

>  <KierA1>
16.1537

>  <KierA2>
6.93059

>  <KierA3>
3.31876

>  <KierFlex>
3.61144

>  <logS>
-3.47147

>  <MNDO_dipole>
5.14597

>  <MNDO_E>
-132404

>  <MNDO_Eele>
-977267

>  <MNDO_HF>
-88.0137

>  <MNDO_HOMO>
-9.44292

>  <MNDO_IP>
9.44292

>  <MNDO_LUMO>
-1.30322

>  <apol>
58.2273

>  <bpol>
29.9927

>  <mr>
10.9997

>  <dipole>
1.01802

>  <dipoleX>
0.380389

>  <dipoleY>
-0.873715

>  <dipoleZ>
-0.358177

>  <pmi>
10115.1

>  <pmiX>
7392.93

>  <pmiY>
1830.2

>  <pmiZ>
891.938

>  <rgyr>
4.88773

>  <a_acc>
5

>  <a_acid>
0

>  <a_base>
0

>  <a_don>
2

>  <a_hyd>
18

>  <vsa_acc>
59.9503

>  <vsa_acid>
0

>  <vsa_base>
0

>  <vsa_don>
23.4251

>  <vsa_hyd>
241.794

>  <vsa_other>
47.3071

>  <vsa_pol>
83.3753

>  <PM3_dipole>
4.60021

>  <PM3_E>
-119698

>  <PM3_Eele>
-960510

>  <PM3_HF>
-105.179

>  <PM3_HOMO>
-9.29471

>  <PM3_IP>
9.29471

>  <PM3_LUMO>
-1.30062

>  <SlogP>
0.9682

>  <SlogP_VSA0>
32.8972

>  <SlogP_VSA1>
44.4981

>  <SlogP_VSA2>
49.7688

>  <SlogP_VSA3>
73.7583

>  <SlogP_VSA4>
80.7145

>  <SlogP_VSA5>
0

>  <SlogP_VSA6>
0

>  <SlogP_VSA7>
127.362

>  <SlogP_VSA8>
0

>  <SlogP_VSA9>
14.9601

>  <SMR>
10.7826

>  <SMR_VSA0>
95.4489

>  <SMR_VSA1>
37.9943

>  <SMR_VSA2>
25.9065

>  <SMR_VSA3>
9.1279

>  <SMR_VSA4>
37.6143

>  <SMR_VSA5>
122.645

>  <SMR_VSA6>
95.2223

>  <SMR_VSA7>
0

>  <ASA>
665.477

>  <ASA+>
304.733

>  <ASA->
254.244

>  <ASA_H>
399.37

>  <ASA_P>
266.106

>  <CASA+>
1980.46

>  <CASA->
1652.58

>  <DASA>
50.4896

>  <DCASA>
327.878

>  <FASA+>
0.457917

>  <FASA->
0.382048

>  <FASA_H>
0.600127

>  <FASA_P>
0.399873

>  <FCASA+>
2.976

>  <FCASA->
2.48331

>  <VSA>
408.668

>  <TPSA>
129.46

>  <density>
0.814257

>  <vdw_area>
392.373

>  <vdw_vol>
519.988

>  <vsurf_A>
4.30164

>  <vsurf_CP>
0.0609585

>  <vsurf_CW1>
2.73814

>  <vsurf_CW2>
2.35276

>  <vsurf_CW3>
1.77224

>  <vsurf_CW4>
0.889178

>  <vsurf_CW5>
0.44891

>  <vsurf_CW6>
0.18914

>  <vsurf_CW7>
0.0620398

>  <vsurf_CW8>
0.0210212

>  <vsurf_D1>
835

>  <vsurf_D2>
496.125

>  <vsurf_D3>
365.25

>  <vsurf_D4>
300.625

>  <vsurf_D5>
248

>  <vsurf_D6>
199.5

>  <vsurf_D7>
126.75

>  <vsurf_D8>
79

>  <vsurf_DD12>
1.11803

>  <vsurf_DD13>
4.06202

>  <vsurf_DD23>
3.3541

>  <vsurf_DW12>
0.5

>  <vsurf_DW13>
0.5

>  <vsurf_DW23>
1

>  <vsurf_EDmin1>
-2.76444

>  <vsurf_EDmin2>
-2.68787

>  <vsurf_EDmin3>
-2.66999

>  <vsurf_EWmin1>
-8.31523

>  <vsurf_EWmin2>
-7.93738

>  <vsurf_EWmin3>
-7.85667

>  <vsurf_G>
1.37088

>  <vsurf_HB1>
384.125

>  <vsurf_HB2>
470.25

>  <vsurf_HB3>
430.125

>  <vsurf_HB4>
191.625

>  <vsurf_HB5>
80.75

>  <vsurf_HB6>
31.875

>  <vsurf_HB7>
11

>  <vsurf_HB8>
3.75

>  <vsurf_HL1>
0.256331

>  <vsurf_HL2>
0.115177

>  <vsurf_ID1>
1.62596

>  <vsurf_ID2>
1.53646

>  <vsurf_ID3>
1.66899

>  <vsurf_ID4>
2.16216

>  <vsurf_ID5>
2.6371

>  <vsurf_ID6>
2.75958

>  <vsurf_ID7>
1.37775

>  <vsurf_ID8>
0.834376

>  <vsurf_IW1>
0.560628

>  <vsurf_IW2>
1.3434

>  <vsurf_IW3>
2.04157

>  <vsurf_IW4>
2.48442

>  <vsurf_IW5>
2.9967

>  <vsurf_IW6>
4.44291

>  <vsurf_IW7>
6.94528

>  <vsurf_IW8>
8.09852

>  <vsurf_R>
1.43381

>  <vsurf_S>
599.015

>  <vsurf_V>
858.875

>  <vsurf_W1>
1585.38

>  <vsurf_W2>
1044.88

>  <vsurf_W3>
597

>  <vsurf_W4>
227.625

>  <vsurf_W5>
93.625

>  <vsurf_W6>
34.625

>  <vsurf_W7>
11.25

>  <vsurf_W8>
3.75

>  <vsurf_Wp1>
1201.25

>  <vsurf_Wp2>
574.625

>  <vsurf_Wp3>
166.875

>  <vsurf_Wp4>
36

>  <vsurf_Wp5>
12.875

>  <vsurf_Wp6>
2.75

>  <vsurf_Wp7>
0.25

>  <vsurf_Wp8>
0

>  <dens>
1.14666

>  <glob>
0.0639261

>  <std_dim1>
4.58901

>  <std_dim2>
1.8735

>  <std_dim3>
1.16027

>  <vol>
369.25

>  <logP(o/w)>
0.09853

$$$$
D15.cdx
  MOE2008           3D

 51 55  0  0  0  0  0  0  0  0999 V2000
   -5.7280  -15.4810   -1.4790 C   0  0  0  0  0  0  0  0  0  0  0  0
   -6.3920  -14.8250   -2.0320 H   0  0  0  0  0  0  0  0  0  0  0  0
   -6.3040  -16.1590   -0.4600 N   0  0  0  0  0  0  0  0  0  0  0  0
   -5.5430  -17.0010    0.2850 C   0  0  0  0  0  0  0  0  0  0  0  0
   -4.1880  -17.1390   -0.0300 C   0  0  0  0  0  0  0  0  0  0  0  0
   -3.5820  -16.4420   -1.0810 C   0  0  0  0  0  0  0  0  0  0  0  0
   -4.3920  -15.5770   -1.8340 C   0  0  0  0  0  0  0  0  0  0  0  0
   -3.2150  -17.9130    0.5570 N   0  0  0  0  0  0  0  0  0  0  0  0
   -3.3800  -18.5280    1.3460 H   0  0  0  0  0  0  0  0  0  0  0  0
   -2.0180  -17.7280   -0.0720 C   0  0  0  0  0  0  0  0  0  0  0  0
   -1.1400  -18.2660    0.2660 H   0  0  0  0  0  0  0  0  0  0  0  0
   -2.1990  -16.8220   -1.1020 C   0  0  0  0  0  0  0  0  0  0  0  0
   -1.1410  -16.3640   -1.9950 C   0  0  0  0  0  0  0  0  0  0  0  0
    0.2890  -16.8040   -1.7350 C   0  0  0  0  0  0  0  0  0  0  0  0
    1.1190  -15.8790   -1.1080 N   0  0  0  0  0  0  0  0  0  0  0  0
    2.5090  -16.2430   -0.8330 C   0  0  0  0  0  0  0  0  0  0  0  0
    2.5210  -16.7040    0.1620 H   0  0  0  0  0  0  0  0  0  0  0  0
    2.8490  -16.9970   -1.5510 H   0  0  0  0  0  0  0  0  0  0  0  0
    3.4410  -15.0270   -0.8610 C   0  0  0  0  0  0  0  0  0  0  0  0
    3.4570  -14.6020   -1.8710 H   0  0  0  0  0  0  0  0  0  0  0  0
    4.4590  -15.3330   -0.6010 H   0  0  0  0  0  0  0  0  0  0  0  0
    2.9940  -13.9580    0.0460 N   0  0  0  0  0  0  0  0  0  0  0  0
    1.5720  -13.9380    0.3950 C   0  0  0  0  0  0  0  0  0  0  0  0
    1.4680  -14.5240    1.3170 H   0  0  0  0  0  0  0  0  0  0  0  0
    1.2550  -12.9140    0.6200 H   0  0  0  0  0  0  0  0  0  0  0  0
    0.6890  -14.5320   -0.7050 C   0  0  0  0  0  0  0  0  0  0  0  0
    0.7380  -13.9070   -1.6050 H   0  0  0  0  0  0  0  0  0  0  0  0
   -0.3520  -14.5560   -0.3710 H   0  0  0  0  0  0  0  0  0  0  0  0
    3.8250  -12.9930    0.6130 C   0  0  0  0  0  0  0  0  0  0  0  0
    5.2270  -12.8990    0.1470 C   0  0  0  0  0  0  0  0  0  0  0  0
   -1.3240  -15.6070   -2.9420 O   0  0  0  0  0  0  0  0  0  0  0  0
    0.6050  -17.9400   -2.0680 O   0  0  0  0  0  0  0  0  0  0  0  0
    3.4690  -12.2110    1.4900 O   0  0  0  0  0  0  0  0  0  0  0  0
   -3.9300  -14.8500   -2.8580 F   0  0  0  0  0  0  0  0  0  0  0  0
    5.5150  -12.6210   -1.1930 C   0  0  0  0  0  0  0  0  0  0  0  0
    4.7150  -12.4760   -1.9140 H   0  0  0  0  0  0  0  0  0  0  0  0
    6.8440  -12.5160   -1.6040 C   0  0  0  0  0  0  0  0  0  0  0  0
    7.0760  -12.3060   -2.6450 H   0  0  0  0  0  0  0  0  0  0  0  0
    7.8760  -12.6710   -0.6770 C   0  0  0  0  0  0  0  0  0  0  0  0
    8.9110  -12.5850   -0.9990 H   0  0  0  0  0  0  0  0  0  0  0  0
    7.5840  -12.9230    0.6650 C   0  0  0  0  0  0  0  0  0  0  0  0
    8.3920  -13.0290    1.3860 H   0  0  0  0  0  0  0  0  0  0  0  0
    6.2580  -13.0310    1.0830 C   0  0  0  0  0  0  0  0  0  0  0  0
    6.0310  -13.2160    2.1300 H   0  0  0  0  0  0  0  0  0  0  0  0
   -6.2160  -17.6940    1.3590 C   0  0  0  0  0  0  0  0  0  0  0  0
   -7.5060  -17.7300    1.8390 C   0  0  0  0  0  0  0  0  0  0  0  0
   -8.3670  -17.1900    1.4690 H   0  0  0  0  0  0  0  0  0  0  0  0
   -7.5910  -18.5820    2.9120 N   0  0  0  0  0  0  0  0  0  0  0  0
   -6.3620  -19.0270    3.0420 C   0  0  0  0  0  0  0  0  0  0  0  0
   -5.9810  -19.7280    3.7700 H   0  0  0  0  0  0  0  0  0  0  0  0
   -5.4670  -18.5370    2.1420 O   0  0  0  0  0  0  0  0  0  0  0  0
  1  2  1  0  0  0  0
  1  3  1  0  0  0  0
  1  7  2  0  0  0  0
  3  4  2  0  0  0  0
  4  5  1  0  0  0  0
  4 45  1  0  0  0  0
  5  6  2  0  0  0  0
  5  8  1  0  0  0  0
  6  7  1  0  0  0  0
  6 12  1  0  0  0  0
  7 34  1  0  0  0  0
  8  9  1  0  0  0  0
  8 10  1  0  0  0  0
 10 11  1  0  0  0  0
 10 12  2  0  0  0  0
 12 13  1  0  0  0  0
 13 14  1  0  0  0  0
 13 31  2  0  0  0  0
 14 15  1  0  0  0  0
 14 32  2  0  0  0  0
 15 16  1  0  0  0  0
 15 26  1  0  0  0  0
 16 17  1  0  0  0  0
 16 18  1  0  0  0  0
 16 19  1  0  0  0  0
 19 20  1  0  0  0  0
 19 21  1  0  0  0  0
 19 22  1  0  0  0  0
 22 23  1  0  0  0  0
 22 29  1  0  0  0  0
 23 24  1  0  0  0  0
 23 25  1  0  0  0  0
 23 26  1  0  0  0  0
 26 27  1  0  0  0  0
 26 28  1  0  0  0  0
 29 30  1  0  0  0  0
 29 33  2  0  0  0  0
 30 35  1  0  0  0  0
 30 43  2  0  0  0  0
 35 36  1  0  0  0  0
 35 37  2  0  0  0  0
 37 38  1  0  0  0  0
 37 39  1  0  0  0  0
 39 40  1  0  0  0  0
 39 41  2  0  0  0  0
 41 42  1  0  0  0  0
 41 43  1  0  0  0  0
 43 44  1  0  0  0  0
 45 46  2  0  0  0  0
 45 51  1  0  0  0  0
 46 47  1  0  0  0  0
 46 48  1  0  0  0  0
 48 49  2  0  0  0  0
 49 50  1  0  0  0  0
 49 51  1  0  0  0  0
M  END
>  <Activity>
9.8239

>  <AM1_dipole>
5.21724

>  <AM1_E>
-138129

>  <AM1_Eele>
-1.04738e+006

>  <AM1_HF>
-9.84413

>  <AM1_HOMO>
-8.898

>  <AM1_IP>
8.898

>  <AM1_LUMO>
-1.31772

>  <diameter>
17

>  <petitjean>
0.470588

>  <petitjeanSC>
0.888889

>  <radius>
9

>  <VDistEq>
3.84292

>  <VDistMa>
9.77179

>  <weinerPath>
3443

>  <weinerPol>
56

>  <BCUT_PEOE_0>
-2.71188

>  <BCUT_PEOE_1>
-0.637025

>  <BCUT_PEOE_2>
0.661424

>  <BCUT_PEOE_3>
2.65031

>  <BCUT_SLOGP_0>
-2.86001

>  <BCUT_SLOGP_1>
-0.550781

>  <BCUT_SLOGP_2>
0.806852

>  <BCUT_SLOGP_3>
2.50337

>  <BCUT_SMR_0>
-2.43203

>  <BCUT_SMR_1>
-0.445641

>  <BCUT_SMR_2>
0.862142

>  <BCUT_SMR_3>
2.92024

>  <GCUT_PEOE_0>
-0.854913

>  <GCUT_PEOE_1>
-0.412243

>  <GCUT_PEOE_2>
0.0803066

>  <GCUT_PEOE_3>
2.68803

>  <GCUT_SLOGP_0>
-0.976491

>  <GCUT_SLOGP_1>
-0.322348

>  <GCUT_SLOGP_2>
0.193777

>  <GCUT_SLOGP_3>
2.67335

>  <GCUT_SMR_0>
-0.508915

>  <GCUT_SMR_1>
-0.218339

>  <GCUT_SMR_2>
0.224389

>  <GCUT_SMR_3>
2.95666

>  <a_aro>
20

>  <a_count>
51

>  <a_IC>
90.5835

>  <a_ICM>
1.77615

>  <a_nH>
18

>  <b_1rotN>
6

>  <b_1rotR>
0.162162

>  <b_ar>
21

>  <b_count>
55

>  <b_double>
3

>  <b_rotN>
6

>  <b_rotR>
0.162162

>  <b_single>
31

>  <b_triple>
0

>  <chi0v>
17.3244

>  <chi0v_C>
13.0246

>  <chi1v>
10.2669

>  <chi1v_C>
5.77671

>  <chiral>
0

>  <chiral_u>
0

>  <nmol>
1

>  <reactive>
0

>  <rings>
5

>  <Weight>
447.426

>  <a_heavy>
33

>  <a_nB>
0

>  <a_nBr>
0

>  <a_nC>
23

>  <a_nCl>
0

>  <a_nF>
1

>  <a_nI>
0

>  <a_nN>
5

>  <a_nO>
4

>  <a_nP>
0

>  <a_nS>
0

>  <b_heavy>
37

>  <chi0>
22.949

>  <chi0_C>
14.9659

>  <chi1>
16.0417

>  <chi1_C>
7.70791

>  <FCharge>
0

>  <VAdjEq>
0.358235

>  <VAdjMa>
6.20945

>  <zagreb>
180

>  <balabanJ>
1.1637

>  <PEOE_PC+>
3.23551

>  <PEOE_PC->
-3.23551

>  <PEOE_RPC+>
0.0912069

>  <PEOE_RPC->
0.136262

>  <PEOE_VSA+0>
73.9323

>  <PEOE_VSA+1>
110.646

>  <PEOE_VSA+2>
10.9649

>  <PEOE_VSA+3>
49.0943

>  <PEOE_VSA+4>
0

>  <PEOE_VSA+5>
34.3576

>  <PEOE_VSA+6>
0

>  <PEOE_VSA-0>
24.5098

>  <PEOE_VSA-1>
36.7647

>  <PEOE_VSA-2>
0

>  <PEOE_VSA-3>
0

>  <PEOE_VSA-4>
23.2738

>  <PEOE_VSA-5>
40.7008

>  <PEOE_VSA-6>
2.64065

>  <PEOE_VSA_FHYD>
0.751839

>  <PEOE_VSA_FNEG>
0.314314

>  <PEOE_VSA_FPNEG>
0.16372

>  <PEOE_VSA_FPOL>
0.248161

>  <PEOE_VSA_FPOS>
0.685686

>  <PEOE_VSA_FPPOS>
0.0844405

>  <PEOE_VSA_HYD>
305.912

>  <PEOE_VSA_NEG>
127.89

>  <PEOE_VSA_PNEG>
66.6152

>  <PEOE_VSA_POL>
100.973

>  <PEOE_VSA_POS>
278.995

>  <PEOE_VSA_PPOS>
34.3576

>  <PC+>
5.974

>  <PC->
-5.975

>  <Q_PC+>
5.974

>  <Q_PC->
-5.975

>  <Q_RPC+>
0.109809

>  <Q_RPC->
0.11046

>  <Q_VSA_FHYD>
0.516431

>  <Q_VSA_FNEG>
0.377028

>  <Q_VSA_FPNEG>
0.175272

>  <Q_VSA_FPOL>
0.483569

>  <Q_VSA_FPOS>
0.622972

>  <Q_VSA_FPPOS>
0.308297

>  <Q_VSA_HYD>
210.128

>  <Q_VSA_NEG>
153.407

>  <Q_VSA_PNEG>
71.3156

>  <Q_VSA_POL>
196.757

>  <Q_VSA_POS>
253.478

>  <Q_VSA_PPOS>
125.441

>  <RPC+>
0.109809

>  <RPC->
0.11046

>  <lip_acc>
9

>  <lip_don>
1

>  <lip_druglike>
1

>  <lip_violation>
0

>  <opr_brigid>
27

>  <opr_leadlike>
0

>  <opr_nring>
5

>  <opr_nrot>
6

>  <opr_violation>
2

>  <E>
103.42

>  <E_ang>
8.33109

>  <E_ele>
36.1769

>  <E_nb>
84.6842

>  <E_oop>
0.0745993

>  <E_sol>
-19.4456

>  <E_stb>
0.946803

>  <E_str>
5.5032

>  <E_strain>
0.00489669

>  <E_tor>
3.88055

>  <E_vdw>
48.5072

>  <E_rele>
0

>  <E_rnb>
-1.13687e-013

>  <E_rsol>
-1.13687e-013

>  <E_rvdw>
0

>  <Kier1>
24.6837

>  <Kier2>
10.9477

>  <Kier3>
5.12

>  <KierA1>
16.8041

>  <KierA2>
7.3557

>  <KierA3>
3.40729

>  <KierFlex>
3.74563

>  <logS>
-4.24494

>  <MNDO_dipole>
5.21101

>  <MNDO_E>
-138274

>  <MNDO_Eele>
-1.04208e+006

>  <MNDO_HF>
-58.249

>  <MNDO_HOMO>
-8.9578

>  <MNDO_IP>
8.9578

>  <MNDO_LUMO>
-1.35512

>  <apol>
61.7473

>  <bpol>
32.9307

>  <mr>
11.8049

>  <dipole>
1.15882

>  <dipoleX>
0.942505

>  <dipoleY>
-0.552926

>  <dipoleZ>
0.385771

>  <pmi>
12663.3

>  <pmiX>
9694.03

>  <pmiY>
1877.87

>  <pmiZ>
1091.42

>  <rgyr>
5.32002

>  <a_acc>
5

>  <a_acid>
0

>  <a_base>
0

>  <a_don>
1

>  <a_hyd>
19

>  <vsa_acc>
52.0659

>  <vsa_acid>
0

>  <vsa_base>
0

>  <vsa_don>
5.68258

>  <vsa_hyd>
262.093

>  <vsa_other>
71.8693

>  <vsa_pol>
57.7485

>  <PM3_dipole>
4.88683

>  <PM3_E>
-125129

>  <PM3_Eele>
-1.02707e+006

>  <PM3_HF>
-63.5784

>  <PM3_HOMO>
-9.02022

>  <PM3_IP>
9.02022

>  <PM3_LUMO>
-1.35116

>  <SlogP>
2.5243

>  <SlogP_VSA0>
0

>  <SlogP_VSA1>
56.0249

>  <SlogP_VSA2>
49.7688

>  <SlogP_VSA3>
73.7583

>  <SlogP_VSA4>
54.0956

>  <SlogP_VSA5>
9.50735

>  <SlogP_VSA6>
0

>  <SlogP_VSA7>
172.259

>  <SlogP_VSA8>
0

>  <SlogP_VSA9>
14.9601

>  <SMR>
11.4805

>  <SMR_VSA0>
81.094

>  <SMR_VSA1>
54.7798

>  <SMR_VSA2>
25.9065

>  <SMR_VSA3>
6.37115

>  <SMR_VSA4>
12.9227

>  <SMR_VSA5>
159.337

>  <SMR_VSA6>
89.9635

>  <SMR_VSA7>
0

>  <ASA>
695.908

>  <ASA+>
350.766

>  <ASA->
236.992

>  <ASA_H>
473.369

>  <ASA_P>
222.539

>  <CASA+>
2095.48

>  <CASA->
1416.03

>  <DASA>
113.774

>  <DCASA>
679.446

>  <FASA+>
0.504041

>  <FASA->
0.340551

>  <FASA_H>
0.680218

>  <FASA_P>
0.319782

>  <FCASA+>
3.01114

>  <FCASA->
2.03479

>  <VSA>
428.64

>  <TPSA>
112.4

>  <density>
0.808633

>  <vdw_area>
406.885

>  <vdw_vol>
553.312

>  <vsurf_A>
3.29042

>  <vsurf_CP>
0.079828

>  <vsurf_CW1>
2.71519

>  <vsurf_CW2>
2.3058

>  <vsurf_CW3>
1.65202

>  <vsurf_CW4>
0.759525

>  <vsurf_CW5>
0.339268

>  <vsurf_CW6>
0.116275

>  <vsurf_CW7>
0.00724465

>  <vsurf_CW8>
0

>  <vsurf_D1>
927.875

>  <vsurf_D2>
546.625

>  <vsurf_D3>
406.5

>  <vsurf_D4>
331.5

>  <vsurf_D5>
277.25

>  <vsurf_D6>
219.25

>  <vsurf_D7>
139.125

>  <vsurf_D8>
83.875

>  <vsurf_DD12>
1.11803

>  <vsurf_DD13>
0.5

>  <vsurf_DD23>
0.707107

>  <vsurf_DW12>
0.5

>  <vsurf_DW13>
9.97497

>  <vsurf_DW23>
9.9373

>  <vsurf_EDmin1>
-2.76808

>  <vsurf_EDmin2>
-2.73278

>  <vsurf_EDmin3>
-2.72634

>  <vsurf_EWmin1>
-5.59699

>  <vsurf_EWmin2>
-5.47031

>  <vsurf_EWmin3>
-5.38332

>  <vsurf_G>
1.39079

>  <vsurf_HB1>
447.25

>  <vsurf_HB2>
554.75

>  <vsurf_HB3>
470.625

>  <vsurf_HB4>
181.625

>  <vsurf_HB5>
64

>  <vsurf_HB6>
19.375

>  <vsurf_HB7>
1.625

>  <vsurf_HB8>
0

>  <vsurf_HL1>
0.166359

>  <vsurf_HL2>
0.061086

>  <vsurf_ID1>
1.23504

>  <vsurf_ID2>
1.10096

>  <vsurf_ID3>
1.31485

>  <vsurf_ID4>
1.77312

>  <vsurf_ID5>
2.26541

>  <vsurf_ID6>
2.43475

>  <vsurf_ID7>
1.15219

>  <vsurf_ID8>
0.704076

>  <vsurf_IW1>
0.590456

>  <vsurf_IW2>
1.427

>  <vsurf_IW3>
1.87291

>  <vsurf_IW4>
1.95994

>  <vsurf_IW5>
2.07916

>  <vsurf_IW6>
2.26738

>  <vsurf_IW7>
3.16588

>  <vsurf_IW8>
0

>  <vsurf_R>
1.44159

>  <vsurf_S>
632.289

>  <vsurf_V>
911.5

>  <vsurf_W1>
1638.13

>  <vsurf_W2>
1058.63

>  <vsurf_W3>
564.75

>  <vsurf_W4>
193.75

>  <vsurf_W5>
67.625

>  <vsurf_W6>
20.25

>  <vsurf_W7>
1.625

>  <vsurf_W8>
0

>  <vsurf_Wp1>
1190.88

>  <vsurf_Wp2>
503.875

>  <vsurf_Wp3>
94.125

>  <vsurf_Wp4>
12.125

>  <vsurf_Wp5>
3.625

>  <vsurf_Wp6>
0.875

>  <vsurf_Wp7>
0

>  <vsurf_Wp8>
0

>  <dens>
1.13129

>  <glob>
0.0525076

>  <std_dim1>
5.16667

>  <std_dim2>
1.56535

>  <std_dim3>
1.18392

>  <vol>
395.5

>  <logP(o/w)>
0.63053

$$$$
D15.cdx
  MOE2008           3D

 51 55  0  0  0  0  0  0  0  0999 V2000
   -4.9500  -20.0470   -0.9270 C   0  0  0  0  0  0  0  0  0  0  0  0
   -5.7160  -19.3040   -1.1240 H   0  0  0  0  0  0  0  0  0  0  0  0
   -5.2280  -21.2920   -1.3700 N   0  0  0  0  0  0  0  0  0  0  0  0
   -4.3260  -22.2930   -1.1710 C   0  0  0  0  0  0  0  0  0  0  0  0
   -3.1290  -21.9820   -0.5060 C   0  0  0  0  0  0  0  0  0  0  0  0
   -2.8320  -20.6940   -0.0420 C   0  0  0  0  0  0  0  0  0  0  0  0
   -3.7870  -19.6890   -0.2670 C   0  0  0  0  0  0  0  0  0  0  0  0
   -2.0550  -22.7800   -0.1770 N   0  0  0  0  0  0  0  0  0  0  0  0
   -1.9990  -23.7700   -0.3880 H   0  0  0  0  0  0  0  0  0  0  0  0
   -1.0950  -22.0490    0.4640 C   0  0  0  0  0  0  0  0  0  0  0  0
   -0.1800  -22.5280    0.7920 H   0  0  0  0  0  0  0  0  0  0  0  0
   -1.5360  -20.7430    0.5750 C   0  0  0  0  0  0  0  0  0  0  0  0
   -0.7830  -19.6570    1.1950 C   0  0  0  0  0  0  0  0  0  0  0  0
    0.6450  -19.8890    1.6490 C   0  0  0  0  0  0  0  0  0  0  0  0
    1.6510  -19.5870    0.7350 N   0  0  0  0  0  0  0  0  0  0  0  0
    3.0530  -19.8070    1.0950 C   0  0  0  0  0  0  0  0  0  0  0  0
    3.1470  -20.1120    2.1420 H   0  0  0  0  0  0  0  0  0  0  0  0
    3.4090  -20.6390    0.4750 H   0  0  0  0  0  0  0  0  0  0  0  0
    3.9090  -18.5590    0.8340 C   0  0  0  0  0  0  0  0  0  0  0  0
    4.9580  -18.8150    0.9960 H   0  0  0  0  0  0  0  0  0  0  0  0
    3.6380  -17.7610    1.5350 H   0  0  0  0  0  0  0  0  0  0  0  0
    3.6780  -18.0330   -0.5220 N   0  0  0  0  0  0  0  0  0  0  0  0
    2.2700  -17.8020   -0.8610 C   0  0  0  0  0  0  0  0  0  0  0  0
    1.9200  -16.9880   -0.2150 H   0  0  0  0  0  0  0  0  0  0  0  0
    2.1590  -17.4710   -1.8980 H   0  0  0  0  0  0  0  0  0  0  0  0
    1.4300  -19.0590   -0.6200 C   0  0  0  0  0  0  0  0  0  0  0  0
    1.7280  -19.8510   -1.3180 H   0  0  0  0  0  0  0  0  0  0  0  0
    0.3770  -18.8370   -0.8040 H   0  0  0  0  0  0  0  0  0  0  0  0
    4.6570  -17.7610   -1.4730 C   0  0  0  0  0  0  0  0  0  0  0  0
    6.0790  -17.7980   -1.0670 C   0  0  0  0  0  0  0  0  0  0  0  0
   -1.2290  -18.5250    1.3540 O   0  0  0  0  0  0  0  0  0  0  0  0
    0.8180  -20.3340    2.7780 O   0  0  0  0  0  0  0  0  0  0  0  0
    4.4200  -17.4880   -2.6470 O   0  0  0  0  0  0  0  0  0  0  0  0
   -3.6180  -18.4190    0.1190 F   0  0  0  0  0  0  0  0  0  0  0  0
    6.9470  -18.6740   -1.7270 C   0  0  0  0  0  0  0  0  0  0  0  0
    6.5740  -19.3310   -2.5090 H   0  0  0  0  0  0  0  0  0  0  0  0
    8.2960  -18.6970   -1.3770 C   0  0  0  0  0  0  0  0  0  0  0  0
    8.9780  -19.3770   -1.8820 H   0  0  0  0  0  0  0  0  0  0  0  0
    8.7750  -17.8410   -0.3830 C   0  0  0  0  0  0  0  0  0  0  0  0
    9.8280  -17.8590   -0.1140 H   0  0  0  0  0  0  0  0  0  0  0  0
    7.9090  -16.9520    0.2590 C   0  0  0  0  0  0  0  0  0  0  0  0
    8.2910  -16.2790    1.0220 H   0  0  0  0  0  0  0  0  0  0  0  0
    6.5580  -16.9220   -0.0880 C   0  0  0  0  0  0  0  0  0  0  0  0
    5.8900  -16.2170    0.4000 H   0  0  0  0  0  0  0  0  0  0  0  0
   -4.6850  -23.6140   -1.6760 C   0  0  0  0  0  0  0  0  0  0  0  0
   -5.7740  -24.0200   -2.3070 N   0  0  0  0  0  0  0  0  0  0  0  0
   -5.5520  -25.3530   -2.5360 C   0  0  0  0  0  0  0  0  0  0  0  0
   -6.2790  -25.9710   -3.0440 H   0  0  0  0  0  0  0  0  0  0  0  0
   -4.3280  -25.7150   -2.0360 C   0  0  0  0  0  0  0  0  0  0  0  0
   -3.7570  -26.6300   -1.9910 H   0  0  0  0  0  0  0  0  0  0  0  0
   -3.7560  -24.6110   -1.4810 O   0  0  0  0  0  0  0  0  0  0  0  0
  1  2  1  0  0  0  0
  1  3  1  0  0  0  0
  1  7  2  0  0  0  0
  3  4  2  0  0  0  0
  4  5  1  0  0  0  0
  4 45  1  0  0  0  0
  5  6  2  0  0  0  0
  5  8  1  0  0  0  0
  6  7  1  0  0  0  0
  6 12  1  0  0  0  0
  7 34  1  0  0  0  0
  8  9  1  0  0  0  0
  8 10  1  0  0  0  0
 10 11  1  0  0  0  0
 10 12  2  0  0  0  0
 12 13  1  0  0  0  0
 13 14  1  0  0  0  0
 13 31  2  0  0  0  0
 14 15  1  0  0  0  0
 14 32  2  0  0  0  0
 15 16  1  0  0  0  0
 15 26  1  0  0  0  0
 16 17  1  0  0  0  0
 16 18  1  0  0  0  0
 16 19  1  0  0  0  0
 19 20  1  0  0  0  0
 19 21  1  0  0  0  0
 19 22  1  0  0  0  0
 22 23  1  0  0  0  0
 22 29  1  0  0  0  0
 23 24  1  0  0  0  0
 23 25  1  0  0  0  0
 23 26  1  0  0  0  0
 26 27  1  0  0  0  0
 26 28  1  0  0  0  0
 29 30  1  0  0  0  0
 29 33  2  0  0  0  0
 30 35  1  0  0  0  0
 30 43  2  0  0  0  0
 35 36  1  0  0  0  0
 35 37  2  0  0  0  0
 37 38  1  0  0  0  0
 37 39  1  0  0  0  0
 39 40  1  0  0  0  0
 39 41  2  0  0  0  0
 41 42  1  0  0  0  0
 41 43  1  0  0  0  0
 43 44  1  0  0  0  0
 45 46  2  0  0  0  0
 45 51  1  0  0  0  0
 46 47  1  0  0  0  0
 47 48  1  0  0  0  0
 47 49  2  0  0  0  0
 49 50  1  0  0  0  0
 49 51  1  0  0  0  0
M  END
>  <Activity>
8.4485

>  <AM1_dipole>
7.33764

>  <AM1_E>
-138127

>  <AM1_Eele>
-1.05272e+006

>  <AM1_HF>
-5.17577

>  <AM1_HOMO>
-9.06509

>  <AM1_IP>
9.06509

>  <AM1_LUMO>
-1.2798

>  <diameter>
17

>  <petitjean>
0.470588

>  <petitjeanSC>
0.888889

>  <radius>
9

>  <VDistEq>
3.84292

>  <VDistMa>
9.77179

>  <weinerPath>
3443

>  <weinerPol>
56

>  <BCUT_PEOE_0>
-2.71188

>  <BCUT_PEOE_1>
-0.637192

>  <BCUT_PEOE_2>
0.700242

>  <BCUT_PEOE_3>
2.65031

>  <BCUT_SLOGP_0>
-2.86001

>  <BCUT_SLOGP_1>
-0.551513

>  <BCUT_SLOGP_2>
0.815756

>  <BCUT_SLOGP_3>
2.50334

>  <BCUT_SMR_0>
-2.43203

>  <BCUT_SMR_1>
-0.445642

>  <BCUT_SMR_2>
0.887264

>  <BCUT_SMR_3>
2.92024

>  <GCUT_PEOE_0>
-0.854778

>  <GCUT_PEOE_1>
-0.410453

>  <GCUT_PEOE_2>
0.0831916

>  <GCUT_PEOE_3>
2.68549

>  <GCUT_SLOGP_0>
-0.976493

>  <GCUT_SLOGP_1>
-0.322313

>  <GCUT_SLOGP_2>
0.194507

>  <GCUT_SLOGP_3>
2.66744

>  <GCUT_SMR_0>
-0.508915

>  <GCUT_SMR_1>
-0.218804

>  <GCUT_SMR_2>
0.249893

>  <GCUT_SMR_3>
2.95337

>  <a_aro>
20

>  <a_count>
51

>  <a_IC>
90.5835

>  <a_ICM>
1.77615

>  <a_nH>
18

>  <b_1rotN>
6

>  <b_1rotR>
0.162162

>  <b_ar>
21

>  <b_count>
55

>  <b_double>
3

>  <b_rotN>
6

>  <b_rotR>
0.162162

>  <b_single>
31

>  <b_triple>
0

>  <chi0v>
17.3244

>  <chi0v_C>
13.0246

>  <chi1v>
10.277

>  <chi1v_C>
5.82137

>  <chiral>
0

>  <chiral_u>
0

>  <nmol>
1

>  <reactive>
0

>  <rings>
5

>  <Weight>
447.426

>  <a_heavy>
33

>  <a_nB>
0

>  <a_nBr>
0

>  <a_nC>
23

>  <a_nCl>
0

>  <a_nF>
1

>  <a_nI>
0

>  <a_nN>
5

>  <a_nO>
4

>  <a_nP>
0

>  <a_nS>
0

>  <b_heavy>
37

>  <chi0>
22.949

>  <chi0_C>
14.9659

>  <chi1>
16.0417

>  <chi1_C>
7.79966

>  <FCharge>
0

>  <VAdjEq>
0.358235

>  <VAdjMa>
6.20945

>  <zagreb>
180

>  <balabanJ>
1.1637

>  <PEOE_PC+>
3.22755

>  <PEOE_PC->
-3.22755

>  <PEOE_RPC+>
0.0914319

>  <PEOE_RPC->
0.137073

>  <PEOE_VSA+0>
73.9323

>  <PEOE_VSA+1>
110.646

>  <PEOE_VSA+2>
29.4698

>  <PEOE_VSA+3>
17.6399

>  <PEOE_VSA+4>
12.9495

>  <PEOE_VSA+5>
34.3576

>  <PEOE_VSA+6>
0

>  <PEOE_VSA-0>
24.5098

>  <PEOE_VSA-1>
36.7647

>  <PEOE_VSA-2>
0

>  <PEOE_VSA-3>
0

>  <PEOE_VSA-4>
23.2738

>  <PEOE_VSA-5>
40.7008

>  <PEOE_VSA-6>
2.64065

>  <PEOE_VSA_FHYD>
0.720013

>  <PEOE_VSA_FNEG>
0.314314

>  <PEOE_VSA_FPNEG>
0.16372

>  <PEOE_VSA_FPOL>
0.279987

>  <PEOE_VSA_FPOS>
0.685686

>  <PEOE_VSA_FPPOS>
0.116267

>  <PEOE_VSA_HYD>
292.963

>  <PEOE_VSA_NEG>
127.89

>  <PEOE_VSA_PNEG>
66.6152

>  <PEOE_VSA_POL>
113.922

>  <PEOE_VSA_POS>
278.995

>  <PEOE_VSA_PPOS>
47.3071

>  <PC+>
5.984

>  <PC->
-5.985

>  <Q_PC+>
5.984

>  <Q_PC->
-5.985

>  <Q_RPC+>
0.109626

>  <Q_RPC->
0.110276

>  <Q_VSA_FHYD>
0.541122

>  <Q_VSA_FNEG>
0.422507

>  <Q_VSA_FPNEG>
0.175272

>  <Q_VSA_FPOL>
0.458878

>  <Q_VSA_FPOS>
0.577493

>  <Q_VSA_FPPOS>
0.283606

>  <Q_VSA_HYD>
220.174

>  <Q_VSA_NEG>
171.912

>  <Q_VSA_PNEG>
71.3156

>  <Q_VSA_POL>
186.711

>  <Q_VSA_POS>
234.973

>  <Q_VSA_PPOS>
115.395

>  <RPC+>
0.109626

>  <RPC->
0.110276

>  <lip_acc>
9

>  <lip_don>
1

>  <lip_druglike>
1

>  <lip_violation>
0

>  <opr_brigid>
27

>  <opr_leadlike>
0

>  <opr_nring>
5

>  <opr_nrot>
6

>  <opr_violation>
2

>  <E>
113.561

>  <E_ang>
9.34764

>  <E_ele>
47.8765

>  <E_nb>
95.0838

>  <E_oop>
0.0446289

>  <E_sol>
-23.9514

>  <E_stb>
0.978245

>  <E_str>
6.18694

>  <E_strain>
0.00529147

>  <E_tor>
1.92019

>  <E_vdw>
47.2073

>  <E_rele>
0

>  <E_rnb>
1.77636e-014

>  <E_rsol>
1.77636e-014

>  <E_rvdw>
0

>  <Kier1>
24.6837

>  <Kier2>
10.9477

>  <Kier3>
5.12

>  <KierA1>
16.8041

>  <KierA2>
7.3557

>  <KierA3>
3.40729

>  <KierFlex>
3.74563

>  <logS>
-4.53542

>  <MNDO_dipole>
6.36144

>  <MNDO_E>
-138275

>  <MNDO_Eele>
-1.04539e+006

>  <MNDO_HF>
-59.1689

>  <MNDO_HOMO>
-9.2765

>  <MNDO_IP>
9.2765

>  <MNDO_LUMO>
-1.23272

>  <apol>
61.7473

>  <bpol>
32.9307

>  <mr>
11.8043

>  <dipole>
1.88077

>  <dipoleX>
1.23358

>  <dipoleY>
-1.41489

>  <dipoleZ>
0.116895

>  <pmi>
12350.4

>  <pmiX>
8899.49

>  <pmiY>
2688.53

>  <pmiZ>
762.418

>  <rgyr>
5.25389

>  <a_acc>
5

>  <a_acid>
0

>  <a_base>
0

>  <a_don>
1

>  <a_hyd>
19

>  <vsa_acc>
52.0659

>  <vsa_acid>
0

>  <vsa_base>
0

>  <vsa_don>
5.68258

>  <vsa_hyd>
262.093

>  <vsa_other>
71.8693

>  <vsa_pol>
57.7485

>  <PM3_dipole>
7.36438

>  <PM3_E>
-125128

>  <PM3_Eele>
-1.03569e+006

>  <PM3_HF>
-61.7247

>  <PM3_HOMO>
-9.0913

>  <PM3_IP>
9.0913

>  <PM3_LUMO>
-1.3533

>  <SlogP>
2.5243

>  <SlogP_VSA0>
0

>  <SlogP_VSA1>
56.0249

>  <SlogP_VSA2>
49.7688

>  <SlogP_VSA3>
73.7583

>  <SlogP_VSA4>
54.0956

>  <SlogP_VSA5>
9.50735

>  <SlogP_VSA6>
0

>  <SlogP_VSA7>
172.259

>  <SlogP_VSA8>
0

>  <SlogP_VSA9>
14.9601

>  <SMR>
11.4805

>  <SMR_VSA0>
81.094

>  <SMR_VSA1>
54.7798

>  <SMR_VSA2>
25.9065

>  <SMR_VSA3>
6.37115

>  <SMR_VSA4>
12.4938

>  <SMR_VSA5>
159.765

>  <SMR_VSA6>
89.9635

>  <SMR_VSA7>
0

>  <ASA>
699.141

>  <ASA+>
322.633

>  <ASA->
271.509

>  <ASA_H>
507.141

>  <ASA_P>
192

>  <CASA+>
1930.64

>  <CASA->
1624.98

>  <DASA>
51.1244

>  <DCASA>
305.657

>  <FASA+>
0.461471

>  <FASA->
0.388346

>  <FASA_H>
0.725378

>  <FASA_P>
0.274622

>  <FCASA+>
2.76144

>  <FCASA->
2.32425

>  <VSA>
431.759

>  <TPSA>
112.4

>  <density>
0.808633

>  <vdw_area>
406.885

>  <vdw_vol>
553.312

>  <vsurf_A>
4.15941

>  <vsurf_CP>
0.0770241

>  <vsurf_CW1>
2.65457

>  <vsurf_CW2>
2.15457

>  <vsurf_CW3>
1.47904

>  <vsurf_CW4>
0.733157

>  <vsurf_CW5>
0.353075

>  <vsurf_CW6>
0.144923

>  <vsurf_CW7>
0.0493066

>  <vsurf_CW8>
0.028765

>  <vsurf_D1>
952.75

>  <vsurf_D2>
562.25

>  <vsurf_D3>
418.25

>  <vsurf_D4>
352.125

>  <vsurf_D5>
298.5

>  <vsurf_D6>
238.625

>  <vsurf_D7>
138.875

>  <vsurf_D8>
81

>  <vsurf_DD12>
1.11803

>  <vsurf_DD13>
0.866025

>  <vsurf_DD23>
0.707107

>  <vsurf_DW12>
0.707107

>  <vsurf_DW13>
0.707107

>  <vsurf_DW23>
1.22474

>  <vsurf_EDmin1>
-2.80303

>  <vsurf_EDmin2>
-2.76298

>  <vsurf_EDmin3>
-2.68245

>  <vsurf_EWmin1>
-9.47073

>  <vsurf_EWmin2>
-9.24154

>  <vsurf_EWmin3>
-9.10882

>  <vsurf_G>
1.39539

>  <vsurf_HB1>
385.25

>  <vsurf_HB2>
471.875

>  <vsurf_HB3>
435.875

>  <vsurf_HB4>
187.625

>  <vsurf_HB5>
75.25

>  <vsurf_HB6>
28.625

>  <vsurf_HB7>
11.25

>  <vsurf_HB8>
5.875

>  <vsurf_HL1>
0.188882

>  <vsurf_HL2>
0.0837771

>  <vsurf_ID1>
1.20157

>  <vsurf_ID2>
1.15302

>  <vsurf_ID3>
1.31336

>  <vsurf_ID4>
1.55941

>  <vsurf_ID5>
1.8798

>  <vsurf_ID6>
2.00321

>  <vsurf_ID7>
1.13366

>  <vsurf_ID8>
0.853533

>  <vsurf_IW1>
0.221354

>  <vsurf_IW2>
1.01239

>  <vsurf_IW3>
1.74789

>  <vsurf_IW4>
2.3704

>  <vsurf_IW5>
3.09345

>  <vsurf_IW6>
4.95245

>  <vsurf_IW7>
7.88916

>  <vsurf_IW8>
8.74683

>  <vsurf_R>
1.43958

>  <vsurf_S>
636.817

>  <vsurf_V>
916.75

>  <vsurf_W1>
1573.88

>  <vsurf_W2>
971

>  <vsurf_W3>
526.75

>  <vsurf_W4>
198.875

>  <vsurf_W5>
79

>  <vsurf_W6>
29.5

>  <vsurf_W7>
11.25

>  <vsurf_W8>
5.875

>  <vsurf_Wp1>
1188.63

>  <vsurf_Wp2>
499.125

>  <vsurf_Wp3>
90.875

>  <vsurf_Wp4>
11.25

>  <vsurf_Wp5>
3.75

>  <vsurf_Wp6>
0.875

>  <vsurf_Wp7>
0

>  <vsurf_Wp8>
0

>  <dens>
1.13668

>  <glob>
0.054212

>  <std_dim1>
5.08352

>  <std_dim2>
1.71415

>  <std_dim3>
1.18362

>  <vol>
393.625

>  <logP(o/w)>
1.14406

$$$$
D16.cdx
  MOE2008           3D

 53 57  0  0  0  0  0  0  0  0999 V2000
   -6.8920   24.8260   -0.8590 C   0  0  0  0  0  0  0  0  0  0  0  0
   -7.7420   25.4650   -1.0780 H   0  0  0  0  0  0  0  0  0  0  0  0
   -6.9280   23.6030   -1.4310 N   0  0  0  0  0  0  0  0  0  0  0  0
   -5.9130   22.7270   -1.2030 C   0  0  0  0  0  0  0  0  0  0  0  0
   -4.8400   23.1440   -0.4010 C   0  0  0  0  0  0  0  0  0  0  0  0
   -4.7890   24.4180    0.1850 C   0  0  0  0  0  0  0  0  0  0  0  0
   -5.8670   25.2850   -0.0520 C   0  0  0  0  0  0  0  0  0  0  0  0
   -3.6730   22.5000   -0.0550 N   0  0  0  0  0  0  0  0  0  0  0  0
   -3.4180   21.5650   -0.3460 H   0  0  0  0  0  0  0  0  0  0  0  0
   -2.9020   23.3050    0.7360 C   0  0  0  0  0  0  0  0  0  0  0  0
   -1.9480   22.9460    1.1050 H   0  0  0  0  0  0  0  0  0  0  0  0
   -3.5530   24.5130    0.9100 C   0  0  0  0  0  0  0  0  0  0  0  0
   -3.0270   25.6410    1.6740 C   0  0  0  0  0  0  0  0  0  0  0  0
   -1.6160   25.5750    2.2270 C   0  0  0  0  0  0  0  0  0  0  0  0
   -0.5990   26.0690    1.4110 N   0  0  0  0  0  0  0  0  0  0  0  0
    0.7840   26.0050    1.8850 C   0  0  0  0  0  0  0  0  0  0  0  0
    0.9680   26.9320    2.4420 H   0  0  0  0  0  0  0  0  0  0  0  0
    0.9030   25.1720    2.5860 H   0  0  0  0  0  0  0  0  0  0  0  0
    1.7880   25.8750    0.7360 C   0  0  0  0  0  0  0  0  0  0  0  0
    1.6300   24.9220    0.2170 H   0  0  0  0  0  0  0  0  0  0  0  0
    2.8080   25.8850    1.1310 H   0  0  0  0  0  0  0  0  0  0  0  0
    1.6310   26.9360   -0.2710 N   0  0  0  0  0  0  0  0  0  0  0  0
    0.3200   27.5860   -0.3480 C   0  0  0  0  0  0  0  0  0  0  0  0
    0.3670   28.4610    0.3120 H   0  0  0  0  0  0  0  0  0  0  0  0
    0.1420   27.9510   -1.3650 H   0  0  0  0  0  0  0  0  0  0  0  0
   -0.8240   26.6650    0.0870 C   0  0  0  0  0  0  0  0  0  0  0  0
   -0.9200   25.8290   -0.6170 H   0  0  0  0  0  0  0  0  0  0  0  0
   -1.7680   27.2170    0.0790 H   0  0  0  0  0  0  0  0  0  0  0  0
    2.6400   27.3830   -1.1230 C   0  0  0  0  0  0  0  0  0  0  0  0
    3.9350   26.6650   -1.1330 C   0  0  0  0  0  0  0  0  0  0  0  0
   -3.6510   26.6760    1.8930 O   0  0  0  0  0  0  0  0  0  0  0  0
   -1.4620   25.0870    3.3400 O   0  0  0  0  0  0  0  0  0  0  0  0
    2.5310   28.3530   -1.8680 O   0  0  0  0  0  0  0  0  0  0  0  0
   -5.9310   26.5250    0.4480 F   0  0  0  0  0  0  0  0  0  0  0  0
    4.0030   25.3230   -1.5210 C   0  0  0  0  0  0  0  0  0  0  0  0
    3.1070   24.7850   -1.8170 H   0  0  0  0  0  0  0  0  0  0  0  0
    5.2380   24.6760   -1.5400 C   0  0  0  0  0  0  0  0  0  0  0  0
    5.3020   23.6320   -1.8370 H   0  0  0  0  0  0  0  0  0  0  0  0
    6.3970   25.3710   -1.1890 C   0  0  0  0  0  0  0  0  0  0  0  0
    7.3590   24.8650   -1.2090 H   0  0  0  0  0  0  0  0  0  0  0  0
    6.3280   26.7170   -0.8260 C   0  0  0  0  0  0  0  0  0  0  0  0
    7.2350   27.2570   -0.5670 H   0  0  0  0  0  0  0  0  0  0  0  0
    5.0960   27.3710   -0.8030 C   0  0  0  0  0  0  0  0  0  0  0  0
    5.0430   28.4220   -0.5310 H   0  0  0  0  0  0  0  0  0  0  0  0
   -5.9950   21.4360   -1.8610 C   0  0  0  0  0  0  0  0  0  0  0  0
   -6.1730   21.3220   -3.2290 C   0  0  0  0  0  0  0  0  0  0  0  0
   -6.2600   22.2060   -3.8570 H   0  0  0  0  0  0  0  0  0  0  0  0
   -6.2460   20.1500   -3.8970 N   0  0  0  0  0  0  0  0  0  0  0  0
   -6.1560   19.0460   -3.1390 C   0  0  0  0  0  0  0  0  0  0  0  0
   -6.2170   18.0930   -3.6510 H   0  0  0  0  0  0  0  0  0  0  0  0
   -5.9980   19.0140   -1.8070 N   0  0  0  0  0  0  0  0  0  0  0  0
   -5.9290   20.2210   -1.2000 C   0  0  0  0  0  0  0  0  0  0  0  0
   -5.8290   20.1690   -0.1180 H   0  0  0  0  0  0  0  0  0  0  0  0
  1  2  1  0  0  0  0
  1  3  1  0  0  0  0
  1  7  2  0  0  0  0
  3  4  2  0  0  0  0
  4  5  1  0  0  0  0
  4 45  1  0  0  0  0
  5  6  2  0  0  0  0
  5  8  1  0  0  0  0
  6  7  1  0  0  0  0
  6 12  1  0  0  0  0
  7 34  1  0  0  0  0
  8  9  1  0  0  0  0
  8 10  1  0  0  0  0
 10 11  1  0  0  0  0
 10 12  2  0  0  0  0
 12 13  1  0  0  0  0
 13 14  1  0  0  0  0
 13 31  2  0  0  0  0
 14 15  1  0  0  0  0
 14 32  2  0  0  0  0
 15 16  1  0  0  0  0
 15 26  1  0  0  0  0
 16 17  1  0  0  0  0
 16 18  1  0  0  0  0
 16 19  1  0  0  0  0
 19 20  1  0  0  0  0
 19 21  1  0  0  0  0
 19 22  1  0  0  0  0
 22 23  1  0  0  0  0
 22 29  1  0  0  0  0
 23 24  1  0  0  0  0
 23 25  1  0  0  0  0
 23 26  1  0  0  0  0
 26 27  1  0  0  0  0
 26 28  1  0  0  0  0
 29 30  1  0  0  0  0
 29 33  2  0  0  0  0
 30 35  1  0  0  0  0
 30 43  2  0  0  0  0
 35 36  1  0  0  0  0
 35 37  2  0  0  0  0
 37 38  1  0  0  0  0
 37 39  1  0  0  0  0
 39 40  1  0  0  0  0
 39 41  2  0  0  0  0
 41 42  1  0  0  0  0
 41 43  1  0  0  0  0
 43 44  1  0  0  0  0
 45 46  1  0  0  0  0
 45 52  2  0  0  0  0
 46 47  1  0  0  0  0
 46 48  2  0  0  0  0
 48 49  1  0  0  0  0
 49 50  1  0  0  0  0
 49 51  2  0  0  0  0
 51 52  1  0  0  0  0
 52 53  1  0  0  0  0
M  END
>  <Activity>
9.4202

>  <AM1_dipole>
5.3539

>  <AM1_E>
-138801

>  <AM1_Eele>
-1.09053e+006

>  <AM1_HF>
21.8637

>  <AM1_HOMO>
-9.17749

>  <AM1_IP>
9.17749

>  <AM1_LUMO>
-1.28901

>  <diameter>
18

>  <petitjean>
0.5

>  <petitjeanSC>
1

>  <radius>
9

>  <VDistEq>
3.8856

>  <VDistMa>
9.85832

>  <weinerPath>
3749

>  <weinerPol>
59

>  <BCUT_PEOE_0>
-2.71188

>  <BCUT_PEOE_1>
-0.641192

>  <BCUT_PEOE_2>
0.66926

>  <BCUT_PEOE_3>
2.65031

>  <BCUT_SLOGP_0>
-2.86001

>  <BCUT_SLOGP_1>
-0.556776

>  <BCUT_SLOGP_2>
0.782766

>  <BCUT_SLOGP_3>
2.50338

>  <BCUT_SMR_0>
-2.43203

>  <BCUT_SMR_1>
-0.472751

>  <BCUT_SMR_2>
0.834764

>  <BCUT_SMR_3>
2.92024

>  <GCUT_PEOE_0>
-0.855007

>  <GCUT_PEOE_1>
-0.418591

>  <GCUT_PEOE_2>
0.0797679

>  <GCUT_PEOE_3>
2.69809

>  <GCUT_SLOGP_0>
-0.976491

>  <GCUT_SLOGP_1>
-0.334234

>  <GCUT_SLOGP_2>
0.178327

>  <GCUT_SLOGP_3>
2.68761

>  <GCUT_SMR_0>
-0.508913

>  <GCUT_SMR_1>
-0.216024

>  <GCUT_SMR_2>
0.219529

>  <GCUT_SMR_3>
2.97057

>  <a_aro>
21

>  <a_count>
53

>  <a_IC>
92.5654

>  <a_ICM>
1.74652

>  <a_nH>
19

>  <b_1rotN>
6

>  <b_1rotR>
0.157895

>  <b_ar>
22

>  <b_count>
57

>  <b_double>
3

>  <b_rotN>
6

>  <b_rotR>
0.157895

>  <b_single>
32

>  <b_triple>
0

>  <chi0v>
17.9407

>  <chi0v_C>
13.6019

>  <chi1v>
10.6321

>  <chi1v_C>
6.06538

>  <chiral>
0

>  <chiral_u>
0

>  <nmol>
1

>  <reactive>
0

>  <rings>
5

>  <Weight>
458.453

>  <a_heavy>
34

>  <a_nB>
0

>  <a_nBr>
0

>  <a_nC>
24

>  <a_nCl>
0

>  <a_nF>
1

>  <a_nI>
0

>  <a_nN>
6

>  <a_nO>
3

>  <a_nP>
0

>  <a_nS>
0

>  <b_heavy>
38

>  <chi0>
23.6561

>  <chi0_C>
15.673

>  <chi1>
16.5417

>  <chi1_C>
8.11616

>  <FCharge>
0

>  <VAdjEq>
0.349836

>  <VAdjMa>
6.24793

>  <zagreb>
184

>  <balabanJ>
1.16352

>  <PEOE_PC+>
3.05995

>  <PEOE_PC->
-3.05995

>  <PEOE_RPC+>
0.0964398

>  <PEOE_RPC->
0.117067

>  <PEOE_VSA+0>
109.633

>  <PEOE_VSA+1>
104.865

>  <PEOE_VSA+2>
25.5023

>  <PEOE_VSA+3>
17.6399

>  <PEOE_VSA+4>
0

>  <PEOE_VSA+5>
34.3576

>  <PEOE_VSA+6>
0

>  <PEOE_VSA-0>
24.5098

>  <PEOE_VSA-1>
36.7647

>  <PEOE_VSA-2>
0

>  <PEOE_VSA-3>
0

>  <PEOE_VSA-4>
28.9564

>  <PEOE_VSA-5>
40.7008

>  <PEOE_VSA-6>
0.136891

>  <PEOE_VSA_FHYD>
0.753817

>  <PEOE_VSA_FNEG>
0.309806

>  <PEOE_VSA_FPNEG>
0.164972

>  <PEOE_VSA_FPOL>
0.246183

>  <PEOE_VSA_FPOS>
0.690194

>  <PEOE_VSA_FPPOS>
0.0812109

>  <PEOE_VSA_HYD>
318.914

>  <PEOE_VSA_NEG>
131.069

>  <PEOE_VSA_PNEG>
69.794

>  <PEOE_VSA_POL>
104.152

>  <PEOE_VSA_POS>
291.998

>  <PEOE_VSA_PPOS>
34.3576

>  <PC+>
6.369

>  <PC->
-6.37

>  <Q_PC+>
6.369

>  <Q_PC->
-6.37

>  <Q_RPC+>
0.102999

>  <Q_RPC->
0.103611

>  <Q_VSA_FHYD>
0.53157

>  <Q_VSA_FNEG>
0.370121

>  <Q_VSA_FPNEG>
0.176082

>  <Q_VSA_FPOL>
0.46843

>  <Q_VSA_FPOS>
0.629879

>  <Q_VSA_FPPOS>
0.292348

>  <Q_VSA_HYD>
224.889

>  <Q_VSA_NEG>
156.586

>  <Q_VSA_PNEG>
74.4944

>  <Q_VSA_POL>
198.177

>  <Q_VSA_POS>
266.48

>  <Q_VSA_PPOS>
123.682

>  <RPC+>
0.102999

>  <RPC->
0.103611

>  <lip_acc>
9

>  <lip_don>
1

>  <lip_druglike>
1

>  <lip_violation>
0

>  <opr_brigid>
28

>  <opr_leadlike>
0

>  <opr_nring>
5

>  <opr_nrot>
6

>  <opr_violation>
3

>  <E>
112.62

>  <E_ang>
8.1963

>  <E_ele>
28.5624

>  <E_nb>
87.1962

>  <E_oop>
0.0764161

>  <E_sol>
-21.8736

>  <E_stb>
1.28153

>  <E_str>
6.24327

>  <E_strain>
0.00484167

>  <E_tor>
9.6259

>  <E_vdw>
58.6338

>  <E_rele>
0

>  <E_rnb>
0

>  <E_rsol>
0

>  <E_rvdw>
0

>  <Kier1>
25.6413

>  <Kier2>
11.5885

>  <Kier3>
5.49584

>  <KierA1>
17.137

>  <KierA2>
7.64209

>  <KierA3>
3.59027

>  <KierFlex>
3.85183

>  <logS>
-4.36447

>  <MNDO_dipole>
6.14558

>  <MNDO_E>
-138900

>  <MNDO_Eele>
-1.08059e+006

>  <MNDO_HF>
12.1977

>  <MNDO_HOMO>
-9.36029

>  <MNDO_IP>
9.36029

>  <MNDO_LUMO>
-1.18117

>  <apol>
64.4721

>  <bpol>
33.4279

>  <mr>
12.3282

>  <dipole>
1.53982

>  <dipoleX>
1.13525

>  <dipoleY>
-1.04006

>  <dipoleZ>
-0.0226339

>  <pmi>
12321.7

>  <pmiX>
8224.83

>  <pmiY>
2885.09

>  <pmiZ>
1211.81

>  <rgyr>
5.18428

>  <a_acc>
6

>  <a_acid>
0

>  <a_base>
0

>  <a_don>
1

>  <a_hyd>
21

>  <vsa_acc>
57.7485

>  <vsa_acid>
0

>  <vsa_base>
0

>  <vsa_don>
5.68258

>  <vsa_hyd>
284.601

>  <vsa_other>
59.1481

>  <vsa_pol>
63.4311

>  <PM3_dipole>
5.52205

>  <PM3_E>
-125193

>  <PM3_Eele>
-1.06349e+006

>  <PM3_HF>
-22.8457

>  <PM3_HOMO>
-9.31088

>  <PM3_IP>
9.31088

>  <PM3_LUMO>
-1.31761

>  <SlogP>
2.3263

>  <SlogP_VSA0>
0

>  <SlogP_VSA1>
72.8104

>  <SlogP_VSA2>
49.7688

>  <SlogP_VSA3>
73.7583

>  <SlogP_VSA4>
54.0956

>  <SlogP_VSA5>
0

>  <SlogP_VSA6>
0

>  <SlogP_VSA7>
184.518

>  <SlogP_VSA8>
0

>  <SlogP_VSA9>
14.9601

>  <SMR>
12.0334

>  <SMR_VSA0>
71.5866

>  <SMR_VSA1>
71.5653

>  <SMR_VSA2>
25.9065

>  <SMR_VSA3>
6.37115

>  <SMR_VSA4>
10.6594

>  <SMR_VSA5>
173.859

>  <SMR_VSA6>
89.9635

>  <SMR_VSA7>
0

>  <ASA>
716.34

>  <ASA+>
357.101

>  <ASA->
252.929

>  <ASA_H>
485.734

>  <ASA_P>
230.606

>  <CASA+>
2274.38

>  <CASA->
1611.16

>  <DASA>
104.172

>  <DCASA>
663.216

>  <FASA+>
0.498508

>  <FASA->
0.353086

>  <FASA_H>
0.678078

>  <FASA_P>
0.321922

>  <FCASA+>
3.17499

>  <FCASA->
2.24916

>  <VSA>
445.22

>  <TPSA>
112.15

>  <density>
0.795192

>  <vdw_area>
423.066

>  <vdw_vol>
576.531

>  <vsurf_A>
3.66047

>  <vsurf_CP>
0.0702352

>  <vsurf_CW1>
2.73777

>  <vsurf_CW2>
2.35489

>  <vsurf_CW3>
1.71622

>  <vsurf_CW4>
0.8491

>  <vsurf_CW5>
0.396946

>  <vsurf_CW6>
0.131538

>  <vsurf_CW7>
0.00591008

>  <vsurf_CW8>
0

>  <vsurf_D1>
903.125

>  <vsurf_D2>
541.75

>  <vsurf_D3>
404.5

>  <vsurf_D4>
330.125

>  <vsurf_D5>
274.375

>  <vsurf_D6>
219.125

>  <vsurf_D7>
137.25

>  <vsurf_D8>
85.625

>  <vsurf_DD12>
1.11803

>  <vsurf_DD13>
0.5

>  <vsurf_DD23>
0.707107

>  <vsurf_DW12>
0.5

>  <vsurf_DW13>
11.3798

>  <vsurf_DW23>
11.1467

>  <vsurf_EDmin1>
-2.82903

>  <vsurf_EDmin2>
-2.81555

>  <vsurf_EDmin3>
-2.79272

>  <vsurf_EWmin1>
-5.63259

>  <vsurf_EWmin2>
-5.50388

>  <vsurf_EWmin3>
-5.36379

>  <vsurf_G>
1.40054

>  <vsurf_HB1>
511.875

>  <vsurf_HB2>
633.875

>  <vsurf_HB3>
524.25

>  <vsurf_HB4>
211.75

>  <vsurf_HB5>
77.125

>  <vsurf_HB6>
19.625

>  <vsurf_HB7>
1.375

>  <vsurf_HB8>
0

>  <vsurf_HL1>
0.20581

>  <vsurf_HL2>
0.0655055

>  <vsurf_ID1>
1.57854

>  <vsurf_ID2>
1.52844

>  <vsurf_ID3>
1.65088

>  <vsurf_ID4>
2.07938

>  <vsurf_ID5>
2.47433

>  <vsurf_ID6>
2.61001

>  <vsurf_ID7>
1.37886

>  <vsurf_ID8>
0.839208

>  <vsurf_IW1>
0.776857

>  <vsurf_IW2>
1.37905

>  <vsurf_IW3>
1.85144

>  <vsurf_IW4>
2.25816

>  <vsurf_IW5>
2.31586

>  <vsurf_IW6>
2.93918

>  <vsurf_IW7>
3.65873

>  <vsurf_IW8>
0

>  <vsurf_R>
1.44766

>  <vsurf_S>
651.138

>  <vsurf_V>
942.625

>  <vsurf_W1>
1748.63

>  <vsurf_W2>
1154.13

>  <vsurf_W3>
628.75

>  <vsurf_W4>
226.875

>  <vsurf_W5>
83.25

>  <vsurf_W6>
21.625

>  <vsurf_W7>
1.5

>  <vsurf_W8>
0

>  <vsurf_Wp1>
1236.75

>  <vsurf_Wp2>
520.25

>  <vsurf_Wp3>
104.5

>  <vsurf_Wp4>
15.125

>  <vsurf_Wp5>
6.125

>  <vsurf_Wp6>
2

>  <vsurf_Wp7>
0.125

>  <vsurf_Wp8>
0

>  <dens>
1.11886

>  <glob>
0.0699553

>  <std_dim1>
4.751

>  <std_dim2>
2.12541

>  <std_dim3>
1.2566

>  <vol>
409.75

>  <logP(o/w)>
0.73753

$$$$
D16.cdx
  MOE2008           3D

 53 57  0  0  0  0  0  0  0  0999 V2000
   -6.6390   19.6860   -0.9770 C   0  0  0  0  0  0  0  0  0  0  0  0
   -7.4040   20.4110   -1.2410 H   0  0  0  0  0  0  0  0  0  0  0  0
   -6.9200   18.4050   -1.3120 N   0  0  0  0  0  0  0  0  0  0  0  0
   -6.0170   17.4240   -1.0230 C   0  0  0  0  0  0  0  0  0  0  0  0
   -4.8270   17.8030   -0.3830 C   0  0  0  0  0  0  0  0  0  0  0  0
   -4.5270   19.1210   -0.0320 C   0  0  0  0  0  0  0  0  0  0  0  0
   -5.4780   20.1030   -0.3470 C   0  0  0  0  0  0  0  0  0  0  0  0
   -3.7640   17.0250    0.0150 N   0  0  0  0  0  0  0  0  0  0  0  0
   -3.7400   16.0190   -0.1230 H   0  0  0  0  0  0  0  0  0  0  0  0
   -2.8000   17.7960    0.5940 C   0  0  0  0  0  0  0  0  0  0  0  0
   -1.8910   17.3400    0.9660 H   0  0  0  0  0  0  0  0  0  0  0  0
   -3.2340   19.1110    0.5910 C   0  0  0  0  0  0  0  0  0  0  0  0
   -2.4710   20.2330    1.1210 C   0  0  0  0  0  0  0  0  0  0  0  0
   -1.0410   20.0090    1.5740 C   0  0  0  0  0  0  0  0  0  0  0  0
   -0.0400   20.2840    0.6480 N   0  0  0  0  0  0  0  0  0  0  0  0
    1.3630   20.0570    1.0070 C   0  0  0  0  0  0  0  0  0  0  0  0
    1.4570   19.7660    2.0580 H   0  0  0  0  0  0  0  0  0  0  0  0
    1.7150   19.2190    0.3950 H   0  0  0  0  0  0  0  0  0  0  0  0
    2.2140   21.3040    0.7320 C   0  0  0  0  0  0  0  0  0  0  0  0
    3.2660   21.0950    0.9340 H   0  0  0  0  0  0  0  0  0  0  0  0
    1.9110   22.1160    1.4040 H   0  0  0  0  0  0  0  0  0  0  0  0
    1.9970   21.7950   -0.6390 N   0  0  0  0  0  0  0  0  0  0  0  0
    0.5930   22.0370   -0.9850 C   0  0  0  0  0  0  0  0  0  0  0  0
    0.2510   22.8720   -0.3620 H   0  0  0  0  0  0  0  0  0  0  0  0
    0.4880   22.3380   -2.0320 H   0  0  0  0  0  0  0  0  0  0  0  0
   -0.2610   20.7930   -0.7150 C   0  0  0  0  0  0  0  0  0  0  0  0
    0.0250   19.9860   -1.3990 H   0  0  0  0  0  0  0  0  0  0  0  0
   -1.3120   21.0220   -0.8980 H   0  0  0  0  0  0  0  0  0  0  0  0
    2.9850   22.0610   -1.5830 C   0  0  0  0  0  0  0  0  0  0  0  0
    4.3860   21.7340   -1.2510 C   0  0  0  0  0  0  0  0  0  0  0  0
   -2.9030   21.3790    1.2050 O   0  0  0  0  0  0  0  0  0  0  0  0
   -0.8710   19.5780    2.7080 O   0  0  0  0  0  0  0  0  0  0  0  0
    2.7770   22.5540   -2.6870 O   0  0  0  0  0  0  0  0  0  0  0  0
   -5.3080   21.4020   -0.0730 F   0  0  0  0  0  0  0  0  0  0  0  0
    4.8050   20.4000   -1.2300 C   0  0  0  0  0  0  0  0  0  0  0  0
    4.1060   19.5960   -1.4390 H   0  0  0  0  0  0  0  0  0  0  0  0
    6.1390   20.1080   -0.9460 C   0  0  0  0  0  0  0  0  0  0  0  0
    6.4800   19.0760   -0.9250 H   0  0  0  0  0  0  0  0  0  0  0  0
    7.0440   21.1440   -0.6980 C   0  0  0  0  0  0  0  0  0  0  0  0
    8.0840   20.9130   -0.4810 H   0  0  0  0  0  0  0  0  0  0  0  0
    6.6220   22.4750   -0.7390 C   0  0  0  0  0  0  0  0  0  0  0  0
    7.3340   23.2760   -0.5580 H   0  0  0  0  0  0  0  0  0  0  0  0
    5.2890   22.7750   -1.0220 C   0  0  0  0  0  0  0  0  0  0  0  0
    4.9620   23.8110   -1.0680 H   0  0  0  0  0  0  0  0  0  0  0  0
   -6.3240   16.0390   -1.3900 C   0  0  0  0  0  0  0  0  0  0  0  0
   -7.5230   15.6700   -1.9890 C   0  0  0  0  0  0  0  0  0  0  0  0
   -8.2980   16.3960   -2.2150 H   0  0  0  0  0  0  0  0  0  0  0  0
   -7.8180   14.3920   -2.3330 N   0  0  0  0  0  0  0  0  0  0  0  0
   -6.8650   13.4790   -2.0580 C   0  0  0  0  0  0  0  0  0  0  0  0
   -7.0940   12.4550   -2.3300 H   0  0  0  0  0  0  0  0  0  0  0  0
   -5.6670   13.8250   -1.4640 C   0  0  0  0  0  0  0  0  0  0  0  0
   -4.9060   13.0860   -1.2460 H   0  0  0  0  0  0  0  0  0  0  0  0
   -5.3700   15.0980   -1.1200 N   0  0  0  0  0  0  0  0  0  0  0  0
  1  2  1  0  0  0  0
  1  3  1  0  0  0  0
  1  7  2  0  0  0  0
  3  4  2  0  0  0  0
  4  5  1  0  0  0  0
  4 45  1  0  0  0  0
  5  6  2  0  0  0  0
  5  8  1  0  0  0  0
  6  7  1  0  0  0  0
  6 12  1  0  0  0  0
  7 34  1  0  0  0  0
  8  9  1  0  0  0  0
  8 10  1  0  0  0  0
 10 11  1  0  0  0  0
 10 12  2  0  0  0  0
 12 13  1  0  0  0  0
 13 14  1  0  0  0  0
 13 31  2  0  0  0  0
 14 15  1  0  0  0  0
 14 32  2  0  0  0  0
 15 16  1  0  0  0  0
 15 26  1  0  0  0  0
 16 17  1  0  0  0  0
 16 18  1  0  0  0  0
 16 19  1  0  0  0  0
 19 20  1  0  0  0  0
 19 21  1  0  0  0  0
 19 22  1  0  0  0  0
 22 23  1  0  0  0  0
 22 29  1  0  0  0  0
 23 24  1  0  0  0  0
 23 25  1  0  0  0  0
 23 26  1  0  0  0  0
 26 27  1  0  0  0  0
 26 28  1  0  0  0  0
 29 30  1  0  0  0  0
 29 33  2  0  0  0  0
 30 35  1  0  0  0  0
 30 43  2  0  0  0  0
 35 36  1  0  0  0  0
 35 37  2  0  0  0  0
 37 38  1  0  0  0  0
 37 39  1  0  0  0  0
 39 40  1  0  0  0  0
 39 41  2  0  0  0  0
 41 42  1  0  0  0  0
 41 43  1  0  0  0  0
 43 44  1  0  0  0  0
 45 46  1  0  0  0  0
 45 53  2  0  0  0  0
 46 47  1  0  0  0  0
 46 48  2  0  0  0  0
 48 49  1  0  0  0  0
 49 50  1  0  0  0  0
 49 51  2  0  0  0  0
 51 52  1  0  0  0  0
 51 53  1  0  0  0  0
M  END
>  <Activity>
10.2218

>  <AM1_dipole>
5.98305

>  <AM1_E>
-138802

>  <AM1_Eele>
-1.08463e+006

>  <AM1_HF>
20.4391

>  <AM1_HOMO>
-9.00916

>  <AM1_IP>
9.00916

>  <AM1_LUMO>
-1.35821

>  <diameter>
18

>  <petitjean>
0.5

>  <petitjeanSC>
1

>  <radius>
9

>  <VDistEq>
3.8856

>  <VDistMa>
9.85832

>  <weinerPath>
3749

>  <weinerPol>
59

>  <BCUT_PEOE_0>
-2.71188

>  <BCUT_PEOE_1>
-0.641289

>  <BCUT_PEOE_2>
0.674339

>  <BCUT_PEOE_3>
2.65031

>  <BCUT_SLOGP_0>
-2.86001

>  <BCUT_SLOGP_1>
-0.557609

>  <BCUT_SLOGP_2>
0.790552

>  <BCUT_SLOGP_3>
2.50335

>  <BCUT_SMR_0>
-2.43203

>  <BCUT_SMR_1>
-0.472752

>  <BCUT_SMR_2>
0.83958

>  <BCUT_SMR_3>
2.92024

>  <GCUT_PEOE_0>
-0.854828

>  <GCUT_PEOE_1>
-0.417545

>  <GCUT_PEOE_2>
0.0799551

>  <GCUT_PEOE_3>
2.69504

>  <GCUT_SLOGP_0>
-0.976493

>  <GCUT_SLOGP_1>
-0.334292

>  <GCUT_SLOGP_2>
0.176978

>  <GCUT_SLOGP_3>
2.68025

>  <GCUT_SMR_0>
-0.508914

>  <GCUT_SMR_1>
-0.217678

>  <GCUT_SMR_2>
0.21895

>  <GCUT_SMR_3>
2.96647

>  <a_aro>
21

>  <a_count>
53

>  <a_IC>
92.5654

>  <a_ICM>
1.74652

>  <a_nH>
19

>  <b_1rotN>
6

>  <b_1rotR>
0.157895

>  <b_ar>
22

>  <b_count>
57

>  <b_double>
3

>  <b_rotN>
6

>  <b_rotR>
0.157895

>  <b_single>
32

>  <b_triple>
0

>  <chi0v>
17.9407

>  <chi0v_C>
13.6019

>  <chi1v>
10.6422

>  <chi1v_C>
6.11004

>  <chiral>
0

>  <chiral_u>
0

>  <nmol>
1

>  <reactive>
0

>  <rings>
5

>  <Weight>
458.453

>  <a_heavy>
34

>  <a_nB>
0

>  <a_nBr>
0

>  <a_nC>
24

>  <a_nCl>
0

>  <a_nF>
1

>  <a_nI>
0

>  <a_nN>
6

>  <a_nO>
3

>  <a_nP>
0

>  <a_nS>
0

>  <b_heavy>
38

>  <chi0>
23.6561

>  <chi0_C>
15.673

>  <chi1>
16.5417

>  <chi1_C>
8.20791

>  <FCharge>
0

>  <VAdjEq>
0.349836

>  <VAdjMa>
6.24793

>  <zagreb>
184

>  <balabanJ>
1.16352

>  <PEOE_PC+>
3.08223

>  <PEOE_PC->
-3.08223

>  <PEOE_RPC+>
0.0957424

>  <PEOE_RPC->
0.116208

>  <PEOE_VSA+0>
107.424

>  <PEOE_VSA+1>
119.177

>  <PEOE_VSA+2>
13.3991

>  <PEOE_VSA+3>
17.6399

>  <PEOE_VSA+4>
0

>  <PEOE_VSA+5>
34.3576

>  <PEOE_VSA+6>
0

>  <PEOE_VSA-0>
24.5098

>  <PEOE_VSA-1>
36.7647

>  <PEOE_VSA-2>
0

>  <PEOE_VSA-3>
0

>  <PEOE_VSA-4>
17.5912

>  <PEOE_VSA-5>
52.0659

>  <PEOE_VSA-6>
0.136891

>  <PEOE_VSA_FHYD>
0.753817

>  <PEOE_VSA_FNEG>
0.309806

>  <PEOE_VSA_FPNEG>
0.164972

>  <PEOE_VSA_FPOL>
0.246183

>  <PEOE_VSA_FPOS>
0.690194

>  <PEOE_VSA_FPPOS>
0.0812109

>  <PEOE_VSA_HYD>
318.914

>  <PEOE_VSA_NEG>
131.069

>  <PEOE_VSA_PNEG>
69.794

>  <PEOE_VSA_POL>
104.152

>  <PEOE_VSA_POS>
291.998

>  <PEOE_VSA_PPOS>
34.3576

>  <PC+>
6.369

>  <PC->
-6.37

>  <Q_PC+>
6.369

>  <Q_PC->
-6.37

>  <Q_RPC+>
0.102999

>  <Q_RPC->
0.103611

>  <Q_VSA_FHYD>
0.565932

>  <Q_VSA_FNEG>
0.370121

>  <Q_VSA_FPNEG>
0.176082

>  <Q_VSA_FPOL>
0.434068

>  <Q_VSA_FPOS>
0.629879

>  <Q_VSA_FPPOS>
0.257986

>  <Q_VSA_HYD>
239.427

>  <Q_VSA_NEG>
156.586

>  <Q_VSA_PNEG>
74.4944

>  <Q_VSA_POL>
183.639

>  <Q_VSA_POS>
266.48

>  <Q_VSA_PPOS>
109.145

>  <RPC+>
0.102999

>  <RPC->
0.103611

>  <lip_acc>
9

>  <lip_don>
1

>  <lip_druglike>
1

>  <lip_violation>
0

>  <opr_brigid>
28

>  <opr_leadlike>
0

>  <opr_nring>
5

>  <opr_nrot>
6

>  <opr_violation>
3

>  <E>
132.621

>  <E_ang>
9.11643

>  <E_ele>
49.3558

>  <E_nb>
112.132

>  <E_oop>
0.0627988

>  <E_sol>
-26.7821

>  <E_stb>
1.54286

>  <E_str>
6.98484

>  <E_strain>
0.00537386

>  <E_tor>
2.78157

>  <E_vdw>
62.7763

>  <E_rele>
0

>  <E_rnb>
0

>  <E_rsol>
0

>  <E_rvdw>
0

>  <Kier1>
25.6413

>  <Kier2>
11.5885

>  <Kier3>
5.49584

>  <KierA1>
17.137

>  <KierA2>
7.64209

>  <KierA3>
3.59027

>  <KierFlex>
3.85183

>  <logS>
-2.91413

>  <MNDO_dipole>
6.6313

>  <MNDO_E>
-138899

>  <MNDO_Eele>
-1.07556e+006

>  <MNDO_HF>
13.3525

>  <MNDO_HOMO>
-9.18867

>  <MNDO_IP>
9.18867

>  <MNDO_LUMO>
-1.2382

>  <apol>
64.4721

>  <bpol>
33.4279

>  <mr>
12.3276

>  <dipole>
1.70416

>  <dipoleX>
0.954531

>  <dipoleY>
-1.40883

>  <dipoleZ>
0.0908405

>  <pmi>
13091.5

>  <pmiX>
9291.08

>  <pmiY>
3117.4

>  <pmiZ>
683.051

>  <rgyr>
5.34377

>  <a_acc>
6

>  <a_acid>
0

>  <a_base>
0

>  <a_don>
1

>  <a_hyd>
22

>  <vsa_acc>
57.7485

>  <vsa_acid>
0

>  <vsa_base>
0

>  <vsa_don>
5.68258

>  <vsa_hyd>
309.392

>  <vsa_other>
34.3576

>  <vsa_pol>
63.4311

>  <PM3_dipole>
6.40312

>  <PM3_E>
-125199

>  <PM3_Eele>
-1.06755e+006

>  <PM3_HF>
-28.4104

>  <PM3_HOMO>
-9.0454

>  <PM3_IP>
9.0454

>  <PM3_LUMO>
-1.50247

>  <SlogP>
2.3263

>  <SlogP_VSA0>
0

>  <SlogP_VSA1>
72.8104

>  <SlogP_VSA2>
49.7688

>  <SlogP_VSA3>
73.7583

>  <SlogP_VSA4>
54.0956

>  <SlogP_VSA5>
0

>  <SlogP_VSA6>
0

>  <SlogP_VSA7>
184.518

>  <SlogP_VSA8>
0

>  <SlogP_VSA9>
14.9601

>  <SMR>
12.0334

>  <SMR_VSA0>
71.5866

>  <SMR_VSA1>
71.5653

>  <SMR_VSA2>
25.9065

>  <SMR_VSA3>
6.37115

>  <SMR_VSA4>
10.2306

>  <SMR_VSA5>
174.288

>  <SMR_VSA6>
89.9635

>  <SMR_VSA7>
0

>  <ASA>
711.034

>  <ASA+>
371.306

>  <ASA->
237.148

>  <ASA_H>
524.64

>  <ASA_P>
186.393

>  <CASA+>
2364.85

>  <CASA->
1510.63

>  <DASA>
134.158

>  <DCASA>
854.215

>  <FASA+>
0.522206

>  <FASA->
0.333525

>  <FASA_H>
0.737856

>  <FASA_P>
0.262144

>  <FCASA+>
3.32593

>  <FCASA->
2.12456

>  <VSA>
445.52

>  <TPSA>
112.15

>  <density>
0.795192

>  <vdw_area>
423.066

>  <vdw_vol>
576.531

>  <vsurf_A>
3.27781

>  <vsurf_CP>
0.0781406

>  <vsurf_CW1>
2.68843

>  <vsurf_CW2>
2.26242

>  <vsurf_CW3>
1.59224

>  <vsurf_CW4>
0.796865

>  <vsurf_CW5>
0.355458

>  <vsurf_CW6>
0.125558

>  <vsurf_CW7>
0.0164355

>  <vsurf_CW8>
0.00173692

>  <vsurf_D1>
961.25

>  <vsurf_D2>
566.375

>  <vsurf_D3>
414.5

>  <vsurf_D4>
348

>  <vsurf_D5>
292.125

>  <vsurf_D6>
232

>  <vsurf_D7>
140.875

>  <vsurf_D8>
84.875

>  <vsurf_DD12>
0.866025

>  <vsurf_DD13>
0.5

>  <vsurf_DD23>
1.22474

>  <vsurf_DW12>
0.5

>  <vsurf_DW13>
0.707107

>  <vsurf_DW23>
0.5

>  <vsurf_EDmin1>
-2.83016

>  <vsurf_EDmin2>
-2.73504

>  <vsurf_EDmin3>
-2.72385

>  <vsurf_EWmin1>
-6.53976

>  <vsurf_EWmin2>
-6.27885

>  <vsurf_EWmin3>
-6.02404

>  <vsurf_G>
1.39839

>  <vsurf_HB1>
434.5

>  <vsurf_HB2>
537.25

>  <vsurf_HB3>
485.25

>  <vsurf_HB4>
200.625

>  <vsurf_HB5>
71.125

>  <vsurf_HB6>
22.625

>  <vsurf_HB7>
3.25

>  <vsurf_HB8>
0.375

>  <vsurf_HL1>
0.178528

>  <vsurf_HL2>
0.0653736

>  <vsurf_ID1>
1.31846

>  <vsurf_ID2>
1.22542

>  <vsurf_ID3>
1.40222

>  <vsurf_ID4>
1.76706

>  <vsurf_ID5>
2.09367

>  <vsurf_ID6>
2.14306

>  <vsurf_ID7>
1.12676

>  <vsurf_ID8>
1.03749

>  <vsurf_IW1>
0.592733

>  <vsurf_IW2>
1.33249

>  <vsurf_IW3>
1.83189

>  <vsurf_IW4>
2.11338

>  <vsurf_IW5>
2.12197

>  <vsurf_IW6>
2.44775

>  <vsurf_IW7>
3.04751

>  <vsurf_IW8>
5.36845

>  <vsurf_R>
1.44758

>  <vsurf_S>
648.067

>  <vsurf_V>
938.125

>  <vsurf_W1>
1663.63

>  <vsurf_W2>
1060.88

>  <vsurf_W3>
580.875

>  <vsurf_W4>
210

>  <vsurf_W5>
74

>  <vsurf_W6>
22.75

>  <vsurf_W7>
3.25

>  <vsurf_W8>
0.375

>  <vsurf_Wp1>
1229.13

>  <vsurf_Wp2>
523.625

>  <vsurf_Wp3>
95.625

>  <vsurf_Wp4>
9.375

>  <vsurf_Wp5>
2.875

>  <vsurf_Wp6>
0.125

>  <vsurf_Wp7>
0

>  <vsurf_Wp8>
0

>  <dens>
1.11648

>  <glob>
0.0483437

>  <std_dim1>
5.16527

>  <std_dim2>
1.84525

>  <std_dim3>
1.1357

>  <vol>
410.625

>  <logP(o/w)>
1.00259

$$$$
D16.cdx
  MOE2008           3D

 52 56  0  0  0  0  0  0  0  0999 V2000
   -6.5760   14.2940    0.1720 C   0  0  0  0  0  0  0  0  0  0  0  0
   -7.4070   14.9750    0.3290 H   0  0  0  0  0  0  0  0  0  0  0  0
   -6.7770   13.0310    0.6160 N   0  0  0  0  0  0  0  0  0  0  0  0
   -5.7870   12.1030    0.4650 C   0  0  0  0  0  0  0  0  0  0  0  0
   -4.5990   12.5180   -0.1570 C   0  0  0  0  0  0  0  0  0  0  0  0
   -4.3800   13.8170   -0.6180 C   0  0  0  0  0  0  0  0  0  0  0  0
   -5.4180   14.7430   -0.4420 C   0  0  0  0  0  0  0  0  0  0  0  0
   -3.4630   11.7900   -0.4300 N   0  0  0  0  0  0  0  0  0  0  0  0
   -3.3750   10.8060   -0.1910 H   0  0  0  0  0  0  0  0  0  0  0  0
   -2.5300   12.5770   -1.0380 C   0  0  0  0  0  0  0  0  0  0  0  0
   -1.5710   12.1600   -1.3220 H   0  0  0  0  0  0  0  0  0  0  0  0
   -3.0560   13.8510   -1.1730 C   0  0  0  0  0  0  0  0  0  0  0  0
   -2.3420   14.9800   -1.7560 C   0  0  0  0  0  0  0  0  0  0  0  0
   -0.8910   14.8080   -2.1630 C   0  0  0  0  0  0  0  0  0  0  0  0
    0.0660   15.0560   -1.1830 N   0  0  0  0  0  0  0  0  0  0  0  0
    1.4820   14.8410   -1.4830 C   0  0  0  0  0  0  0  0  0  0  0  0
    1.7980   13.9720   -0.8930 H   0  0  0  0  0  0  0  0  0  0  0  0
    1.6280   14.5930   -2.5390 H   0  0  0  0  0  0  0  0  0  0  0  0
    2.3360   16.0620   -1.1090 C   0  0  0  0  0  0  0  0  0  0  0  0
    2.1090   16.9010   -1.7770 H   0  0  0  0  0  0  0  0  0  0  0  0
    3.3890   15.8030   -1.2310 H   0  0  0  0  0  0  0  0  0  0  0  0
    2.0400   16.5150    0.2600 N   0  0  0  0  0  0  0  0  0  0  0  0
    0.6190   16.7430    0.5400 C   0  0  0  0  0  0  0  0  0  0  0  0
    0.4580   17.0150    1.5870 H   0  0  0  0  0  0  0  0  0  0  0  0
    0.3110   17.5970   -0.0750 H   0  0  0  0  0  0  0  0  0  0  0  0
   -0.2210   15.5140    0.1840 C   0  0  0  0  0  0  0  0  0  0  0  0
   -1.2800   15.7450    0.3200 H   0  0  0  0  0  0  0  0  0  0  0  0
    0.0260   14.6810    0.8530 H   0  0  0  0  0  0  0  0  0  0  0  0
    2.9720   16.7230    1.2740 C   0  0  0  0  0  0  0  0  0  0  0  0
    4.4130   16.7030    0.9390 C   0  0  0  0  0  0  0  0  0  0  0  0
   -2.8330   16.0930   -1.9160 O   0  0  0  0  0  0  0  0  0  0  0  0
   -0.6650   14.4310   -3.3070 O   0  0  0  0  0  0  0  0  0  0  0  0
    2.6760   16.9240    2.4490 O   0  0  0  0  0  0  0  0  0  0  0  0
   -5.3340   16.0200   -0.8340 F   0  0  0  0  0  0  0  0  0  0  0  0
    5.2480   15.8000    1.6050 C   0  0  0  0  0  0  0  0  0  0  0  0
    4.8380   15.1100    2.3380 H   0  0  0  0  0  0  0  0  0  0  0  0
    6.6140   15.7920    1.3240 C   0  0  0  0  0  0  0  0  0  0  0  0
    7.2710   15.0910    1.8340 H   0  0  0  0  0  0  0  0  0  0  0  0
    7.1410   16.6910    0.3940 C   0  0  0  0  0  0  0  0  0  0  0  0
    8.2070   16.6850    0.1800 H   0  0  0  0  0  0  0  0  0  0  0  0
    6.3070   17.6070   -0.2510 C   0  0  0  0  0  0  0  0  0  0  0  0
    6.7260   18.3130   -0.9640 H   0  0  0  0  0  0  0  0  0  0  0  0
    4.9400   17.6210    0.0250 C   0  0  0  0  0  0  0  0  0  0  0  0
    4.2970   18.3480   -0.4640 H   0  0  0  0  0  0  0  0  0  0  0  0
   -5.9700   10.7320    0.9420 C   0  0  0  0  0  0  0  0  0  0  0  0
   -7.1230   10.1850    1.5640 C   0  0  0  0  0  0  0  0  0  0  0  0
   -8.0530   10.6900    1.7860 H   0  0  0  0  0  0  0  0  0  0  0  0
   -6.8110    8.8740    1.8260 C   0  0  0  0  0  0  0  0  0  0  0  0
   -7.3690    8.0700    2.2850 H   0  0  0  0  0  0  0  0  0  0  0  0
   -5.5410    8.6980    1.3700 N   0  0  0  0  0  0  0  0  0  0  0  0
   -4.9800    7.8530    1.3930 H   0  0  0  0  0  0  0  0  0  0  0  0
   -5.0000    9.8010    0.8310 N   0  0  0  0  0  0  0  0  0  0  0  0
  1  2  1  0  0  0  0
  1  3  1  0  0  0  0
  1  7  2  0  0  0  0
  3  4  2  0  0  0  0
  4  5  1  0  0  0  0
  4 45  1  0  0  0  0
  5  6  2  0  0  0  0
  5  8  1  0  0  0  0
  6  7  1  0  0  0  0
  6 12  1  0  0  0  0
  7 34  1  0  0  0  0
  8  9  1  0  0  0  0
  8 10  1  0  0  0  0
 10 11  1  0  0  0  0
 10 12  2  0  0  0  0
 12 13  1  0  0  0  0
 13 14  1  0  0  0  0
 13 31  2  0  0  0  0
 14 15  1  0  0  0  0
 14 32  2  0  0  0  0
 15 16  1  0  0  0  0
 15 26  1  0  0  0  0
 16 17  1  0  0  0  0
 16 18  1  0  0  0  0
 16 19  1  0  0  0  0
 19 20  1  0  0  0  0
 19 21  1  0  0  0  0
 19 22  1  0  0  0  0
 22 23  1  0  0  0  0
 22 29  1  0  0  0  0
 23 24  1  0  0  0  0
 23 25  1  0  0  0  0
 23 26  1  0  0  0  0
 26 27  1  0  0  0  0
 26 28  1  0  0  0  0
 29 30  1  0  0  0  0
 29 33  2  0  0  0  0
 30 35  1  0  0  0  0
 30 43  2  0  0  0  0
 35 36  1  0  0  0  0
 35 37  2  0  0  0  0
 37 38  1  0  0  0  0
 37 39  1  0  0  0  0
 39 40  1  0  0  0  0
 39 41  2  0  0  0  0
 41 42  1  0  0  0  0
 41 43  1  0  0  0  0
 43 44  1  0  0  0  0
 45 46  1  0  0  0  0
 45 52  2  0  0  0  0
 46 47  1  0  0  0  0
 46 48  2  0  0  0  0
 48 49  1  0  0  0  0
 48 50  1  0  0  0  0
 50 51  1  0  0  0  0
 50 52  1  0  0  0  0
M  END
>  <Activity>
10.1549

>  <AM1_dipole>
7.65388

>  <AM1_E>
-135826

>  <AM1_Eele>
-1.0485e+006

>  <AM1_HF>
39.5351

>  <AM1_HOMO>
-8.71029

>  <AM1_IP>
8.71029

>  <AM1_LUMO>
-0.90103

>  <diameter>
17

>  <petitjean>
0.470588

>  <petitjeanSC>
0.888889

>  <radius>
9

>  <VDistEq>
3.84292

>  <VDistMa>
9.77179

>  <weinerPath>
3443

>  <weinerPol>
56

>  <BCUT_PEOE_0>
-2.71188

>  <BCUT_PEOE_1>
-0.635738

>  <BCUT_PEOE_2>
0.698844

>  <BCUT_PEOE_3>
2.65031

>  <BCUT_SLOGP_0>
-2.86001

>  <BCUT_SLOGP_1>
-0.53808

>  <BCUT_SLOGP_2>
0.805915

>  <BCUT_SLOGP_3>
2.50336

>  <BCUT_SMR_0>
-2.43203

>  <BCUT_SMR_1>
-0.457301

>  <BCUT_SMR_2>
0.854311

>  <BCUT_SMR_3>
2.92024

>  <GCUT_PEOE_0>
-0.855172

>  <GCUT_PEOE_1>
-0.40374

>  <GCUT_PEOE_2>
0.080099

>  <GCUT_PEOE_3>
2.69314

>  <GCUT_SLOGP_0>
-0.976495

>  <GCUT_SLOGP_1>
-0.350347

>  <GCUT_SLOGP_2>
0.164454

>  <GCUT_SLOGP_3>
2.67815

>  <GCUT_SMR_0>
-0.508915

>  <GCUT_SMR_1>
-0.216057

>  <GCUT_SMR_2>
0.224167

>  <GCUT_SMR_3>
2.9645

>  <a_aro>
20

>  <a_count>
52

>  <a_IC>
91.4057

>  <a_ICM>
1.7578

>  <a_nH>
19

>  <b_1rotN>
6

>  <b_1rotR>
0.162162

>  <b_ar>
21

>  <b_count>
56

>  <b_double>
3

>  <b_rotN>
6

>  <b_rotR>
0.162162

>  <b_single>
32

>  <b_triple>
0

>  <chi0v>
17.4161

>  <chi0v_C>
13.0246

>  <chi1v>
10.3799

>  <chi1v_C>
6.11004

>  <chiral>
0

>  <chiral_u>
0

>  <nmol>
1

>  <reactive>
0

>  <rings>
5

>  <Weight>
446.442

>  <a_heavy>
33

>  <a_nB>
0

>  <a_nBr>
0

>  <a_nC>
23

>  <a_nCl>
0

>  <a_nF>
1

>  <a_nI>
0

>  <a_nN>
6

>  <a_nO>
3

>  <a_nP>
0

>  <a_nS>
0

>  <b_heavy>
37

>  <chi0>
22.949

>  <chi0_C>
14.9659

>  <chi1>
16.0417

>  <chi1_C>
8.20791

>  <FCharge>
0

>  <VAdjEq>
0.358235

>  <VAdjMa>
6.20945

>  <zagreb>
180

>  <balabanJ>
1.16371

>  <PEOE_PC+>
3.04365

>  <PEOE_PC->
-3.04365

>  <PEOE_RPC+>
0.0969562

>  <PEOE_RPC->
0.117681

>  <PEOE_VSA+0>
90.6782

>  <PEOE_VSA+1>
98.1656

>  <PEOE_VSA+2>
13.3991

>  <PEOE_VSA+3>
26.2589

>  <PEOE_VSA+4>
0

>  <PEOE_VSA+5>
34.3576

>  <PEOE_VSA+6>
0

>  <PEOE_VSA-0>
36.7647

>  <PEOE_VSA-1>
36.7647

>  <PEOE_VSA-2>
0

>  <PEOE_VSA-3>
9.42104

>  <PEOE_VSA-4>
17.5912

>  <PEOE_VSA-5>
44.5761

>  <PEOE_VSA-6>
0.136891

>  <PEOE_VSA_FHYD>
0.76315

>  <PEOE_VSA_FNEG>
0.355917

>  <PEOE_VSA_FPNEG>
0.152664

>  <PEOE_VSA_FPOL>
0.23685

>  <PEOE_VSA_FPOS>
0.644083

>  <PEOE_VSA_FPPOS>
0.0841862

>  <PEOE_VSA_HYD>
311.452

>  <PEOE_VSA_NEG>
145.255

>  <PEOE_VSA_PNEG>
62.3042

>  <PEOE_VSA_POL>
96.6618

>  <PEOE_VSA_POS>
262.859

>  <PEOE_VSA_PPOS>
34.3576

>  <PC+>
6.288

>  <PC->
-6.289

>  <Q_PC+>
6.288

>  <Q_PC->
-6.289

>  <Q_RPC+>
0.104326

>  <Q_RPC->
0.112419

>  <Q_VSA_FHYD>
0.483145

>  <Q_VSA_FNEG>
0.449978

>  <Q_VSA_FPNEG>
0.218802

>  <Q_VSA_FPOL>
0.516855

>  <Q_VSA_FPOS>
0.550022

>  <Q_VSA_FPPOS>
0.298052

>  <Q_VSA_HYD>
197.178

>  <Q_VSA_NEG>
183.642

>  <Q_VSA_PNEG>
89.2962

>  <Q_VSA_POL>
210.936

>  <Q_VSA_POS>
224.472

>  <Q_VSA_PPOS>
121.639

>  <RPC+>
0.104326

>  <RPC->
0.112419

>  <lip_acc>
9

>  <lip_don>
2

>  <lip_druglike>
1

>  <lip_violation>
0

>  <opr_brigid>
27

>  <opr_leadlike>
0

>  <opr_nring>
5

>  <opr_nrot>
6

>  <opr_violation>
2

>  <E>
106

>  <E_ang>
8.77247

>  <E_ele>
38.5511

>  <E_nb>
88.3544

>  <E_oop>
0.0768363

>  <E_sol>
-25.9149

>  <E_stb>
0.756366

>  <E_str>
6.19242

>  <E_strain>
0.00544135

>  <E_tor>
1.84746

>  <E_vdw>
49.8033

>  <E_rele>
0

>  <E_rnb>
4.26326e-014

>  <E_rsol>
4.26326e-014

>  <E_rvdw>
0

>  <Kier1>
24.6837

>  <Kier2>
10.9477

>  <Kier3>
5.12

>  <KierA1>
16.5045

>  <KierA2>
7.21981

>  <KierA3>
3.34273

>  <KierFlex>
3.61089

>  <logS>
-3.86645

>  <MNDO_dipole>
8.03688

>  <MNDO_E>
-135944

>  <MNDO_Eele>
-1.04164e+006

>  <MNDO_HF>
-5.34707

>  <MNDO_HOMO>
-8.93654

>  <MNDO_IP>
8.93654

>  <MNDO_LUMO>
-0.91785

>  <apol>
62.7121

>  <bpol>
31.4479

>  <mr>
11.9196

>  <dipole>
1.62668

>  <dipoleX>
0.72221

>  <dipoleY>
-1.44063

>  <dipoleZ>
0.22155

>  <pmi>
12157.1

>  <pmiX>
8546.62

>  <pmiY>
2823.87

>  <pmiZ>
786.651

>  <rgyr>
5.21835

>  <a_acc>
6

>  <a_acid>
0

>  <a_base>
0

>  <a_don>
3

>  <a_hyd>
21

>  <vsa_acc>
46.3833

>  <vsa_acid>
0

>  <vsa_base>
0

>  <vsa_don>
5.68258

>  <vsa_hyd>
284.601

>  <vsa_other>
34.3576

>  <vsa_pol>
70.908

>  <PM3_dipole>
8.29927

>  <PM3_E>
-122454

>  <PM3_Eele>
-1.03218e+006

>  <PM3_HF>
-20.1786

>  <PM3_HOMO>
-8.72593

>  <PM3_IP>
8.72593

>  <PM3_LUMO>
-0.99728

>  <SlogP>
2.2594

>  <SlogP_VSA0>
0

>  <SlogP_VSA1>
55.9023

>  <SlogP_VSA2>
66.4318

>  <SlogP_VSA3>
73.7583

>  <SlogP_VSA4>
54.0956

>  <SlogP_VSA5>
0

>  <SlogP_VSA6>
0

>  <SlogP_VSA7>
167.733

>  <SlogP_VSA8>
0

>  <SlogP_VSA9>
14.9601

>  <SMR>
11.6889

>  <SMR_VSA0>
71.5866

>  <SMR_VSA1>
54.6573

>  <SMR_VSA2>
42.5696

>  <SMR_VSA3>
6.37115

>  <SMR_VSA4>
10.2306

>  <SMR_VSA5>
157.502

>  <SMR_VSA6>
89.9635

>  <SMR_VSA7>
0

>  <ASA>
701.35

>  <ASA+>
322.746

>  <ASA->
274.926

>  <ASA_H>
453.521

>  <ASA_P>
247.829

>  <CASA+>
2029.42

>  <CASA->
1729.01

>  <DASA>
47.8197

>  <DCASA>
300.415

>  <FASA+>
0.460178

>  <FASA->
0.391995

>  <FASA_H>
0.64664

>  <FASA_P>
0.35336

>  <FCASA+>
2.8936

>  <FCASA->
2.46526

>  <VSA>
434.55

>  <TPSA>
115.05

>  <density>
0.799896

>  <vdw_area>
408.114

>  <vdw_vol>
558.125

>  <vsurf_A>
2.41008

>  <vsurf_CP>
0.0785828

>  <vsurf_CW1>
2.68283

>  <vsurf_CW2>
2.23922

>  <vsurf_CW3>
1.55323

>  <vsurf_CW4>
0.756054

>  <vsurf_CW5>
0.346584

>  <vsurf_CW6>
0.11816

>  <vsurf_CW7>
0.0270218

>  <vsurf_CW8>
0.00852205

>  <vsurf_D1>
946.25

>  <vsurf_D2>
551.875

>  <vsurf_D3>
408.5

>  <vsurf_D4>
340.625

>  <vsurf_D5>
289.375

>  <vsurf_D6>
229.5

>  <vsurf_D7>
140

>  <vsurf_D8>
79.875

>  <vsurf_DD12>
0.5

>  <vsurf_DD13>
0.707107

>  <vsurf_DD23>
0.866025

>  <vsurf_DW12>
0.707107

>  <vsurf_DW13>
1.22474

>  <vsurf_DW23>
0.707107

>  <vsurf_EDmin1>
-2.81348

>  <vsurf_EDmin2>
-2.79911

>  <vsurf_EDmin3>
-2.76444

>  <vsurf_EWmin1>
-7.28442

>  <vsurf_EWmin2>
-6.87759

>  <vsurf_EWmin3>
-6.81064

>  <vsurf_G>
1.38946

>  <vsurf_HB1>
375.25

>  <vsurf_HB2>
464.5

>  <vsurf_HB3>
412.75

>  <vsurf_HB4>
165.75

>  <vsurf_HB5>
60.625

>  <vsurf_HB6>
20.375

>  <vsurf_HB7>
5.25

>  <vsurf_HB8>
1.25

>  <vsurf_HL1>
0.177479

>  <vsurf_HL2>
0.0653211

>  <vsurf_ID1>
1.05252

>  <vsurf_ID2>
1.022

>  <vsurf_ID3>
1.15094

>  <vsurf_ID4>
1.48464

>  <vsurf_ID5>
1.77592

>  <vsurf_ID6>
1.88417

>  <vsurf_ID7>
1.08227

>  <vsurf_ID8>
0.902698

>  <vsurf_IW1>
0.373794

>  <vsurf_IW2>
0.866466

>  <vsurf_IW3>
1.26447

>  <vsurf_IW4>
1.41837

>  <vsurf_IW5>
1.56398

>  <vsurf_IW6>
1.80387

>  <vsurf_IW7>
3.68132

>  <vsurf_IW8>
5.6548

>  <vsurf_R>
1.44717

>  <vsurf_S>
635.376

>  <vsurf_V>
919.5

>  <vsurf_W1>
1614.38

>  <vsurf_W2>
1018.13

>  <vsurf_W3>
547.75

>  <vsurf_W4>
195.25

>  <vsurf_W5>
72.5

>  <vsurf_W6>
22.25

>  <vsurf_W7>
5.375

>  <vsurf_W8>
1.25

>  <vsurf_Wp1>
1239.13

>  <vsurf_Wp2>
553.625

>  <vsurf_Wp3>
135

>  <vsurf_Wp4>
29.5

>  <vsurf_Wp5>
11.875

>  <vsurf_Wp6>
1.875

>  <vsurf_Wp7>
0.125

>  <vsurf_Wp8>
0

>  <dens>
1.11855

>  <glob>
0.0529685

>  <std_dim1>
5.09575

>  <std_dim2>
1.77901

>  <std_dim3>
1.17278

>  <vol>
399.125

>  <logP(o/w)>
1.86806

$$$$
D16.cdx
  MOE2008           3D

 61 65  0  0  0  0  0  0  0  0999 V2000
   -7.4100    9.5700   -1.0350 C   0  0  0  0  0  0  0  0  0  0  0  0
   -8.2890   10.2050   -0.9740 H   0  0  0  0  0  0  0  0  0  0  0  0
   -7.6070    8.2800   -0.6800 N   0  0  0  0  0  0  0  0  0  0  0  0
   -6.5600    7.4050   -0.7240 C   0  0  0  0  0  0  0  0  0  0  0  0
   -5.3140    7.9030   -1.1400 C   0  0  0  0  0  0  0  0  0  0  0  0
   -5.0990    9.2320   -1.5130 C   0  0  0  0  0  0  0  0  0  0  0  0
   -6.2000   10.0990   -1.4550 C   0  0  0  0  0  0  0  0  0  0  0  0
   -4.1110    7.2460   -1.2690 N   0  0  0  0  0  0  0  0  0  0  0  0
   -4.0020    6.2580   -1.0580 H   0  0  0  0  0  0  0  0  0  0  0  0
   -3.1450    8.1040   -1.7090 C   0  0  0  0  0  0  0  0  0  0  0  0
   -2.1370    7.7440   -1.8700 H   0  0  0  0  0  0  0  0  0  0  0  0
   -3.7160    9.3530   -1.8850 C   0  0  0  0  0  0  0  0  0  0  0  0
   -3.0020   10.5320   -2.3600 C   0  0  0  0  0  0  0  0  0  0  0  0
   -1.5260   10.4250   -2.6990 C   0  0  0  0  0  0  0  0  0  0  0  0
   -0.6220   10.9440   -1.7770 N   0  0  0  0  0  0  0  0  0  0  0  0
    0.8150   10.8690   -2.0580 C   0  0  0  0  0  0  0  0  0  0  0  0
    1.0090   10.2610   -2.9480 H   0  0  0  0  0  0  0  0  0  0  0  0
    1.1470   11.8910   -2.2740 H   0  0  0  0  0  0  0  0  0  0  0  0
    1.5930   10.3080   -0.8630 C   0  0  0  0  0  0  0  0  0  0  0  0
    2.6650   10.3260   -1.0660 H   0  0  0  0  0  0  0  0  0  0  0  0
    1.3150    9.2590   -0.6980 H   0  0  0  0  0  0  0  0  0  0  0  0
    1.2480   11.0290    0.3710 N   0  0  0  0  0  0  0  0  0  0  0  0
   -0.1860   11.0660    0.6680 C   0  0  0  0  0  0  0  0  0  0  0  0
   -0.4940   10.0340    0.8800 H   0  0  0  0  0  0  0  0  0  0  0  0
   -0.3920   11.6630    1.5620 H   0  0  0  0  0  0  0  0  0  0  0  0
   -0.9850   11.6180   -0.5200 C   0  0  0  0  0  0  0  0  0  0  0  0
   -0.7580   12.6810   -0.6610 H   0  0  0  0  0  0  0  0  0  0  0  0
   -2.0540   11.5320   -0.3110 H   0  0  0  0  0  0  0  0  0  0  0  0
    2.1410   11.6280    1.2540 C   0  0  0  0  0  0  0  0  0  0  0  0
    3.5700   11.6880    0.8840 C   0  0  0  0  0  0  0  0  0  0  0  0
   -3.5230   11.6340   -2.5000 O   0  0  0  0  0  0  0  0  0  0  0  0
   -1.2310    9.8680   -3.7510 O   0  0  0  0  0  0  0  0  0  0  0  0
    1.8250   12.1170    2.3340 O   0  0  0  0  0  0  0  0  0  0  0  0
   -6.1280   11.3950   -1.7820 F   0  0  0  0  0  0  0  0  0  0  0  0
    3.9910   12.5310   -0.1490 C   0  0  0  0  0  0  0  0  0  0  0  0
    3.2740   13.1350   -0.6990 H   0  0  0  0  0  0  0  0  0  0  0  0
    5.3470   12.5990   -0.4650 C   0  0  0  0  0  0  0  0  0  0  0  0
    5.6890   13.2490   -1.2670 H   0  0  0  0  0  0  0  0  0  0  0  0
    6.2720   11.8400    0.2560 C   0  0  0  0  0  0  0  0  0  0  0  0
    7.3300   11.8980    0.0100 H   0  0  0  0  0  0  0  0  0  0  0  0
    5.8460   11.0150    1.3000 C   0  0  0  0  0  0  0  0  0  0  0  0
    6.5730   10.4360    1.8650 H   0  0  0  0  0  0  0  0  0  0  0  0
    4.4920   10.9410    1.6220 C   0  0  0  0  0  0  0  0  0  0  0  0
    4.1600   10.3100    2.4420 H   0  0  0  0  0  0  0  0  0  0  0  0
   -6.7540    6.0020   -0.3560 C   0  0  0  0  0  0  0  0  0  0  0  0
   -7.9600    5.3930    0.0830 C   0  0  0  0  0  0  0  0  0  0  0  0
   -8.9220    5.8690    0.2170 H   0  0  0  0  0  0  0  0  0  0  0  0
   -7.6560    4.0650    0.3020 C   0  0  0  0  0  0  0  0  0  0  0  0
   -6.3290    3.9550   -0.0070 N   0  0  0  0  0  0  0  0  0  0  0  0
   -5.7600    3.1160    0.0330 H   0  0  0  0  0  0  0  0  0  0  0  0
   -5.7550    5.1010   -0.4030 N   0  0  0  0  0  0  0  0  0  0  0  0
   -8.4420    2.9510    0.7470 C   0  0  0  0  0  0  0  0  0  0  0  0
   -9.7250    3.3410    0.9820 O   0  0  0  0  0  0  0  0  0  0  0  0
   -8.0070    1.8160    0.8890 O   0  0  0  0  0  0  0  0  0  0  0  0
  -10.5950    2.2940    1.4310 C   0  0  0  0  0  0  0  0  0  0  0  0
  -10.6420    1.5020    0.6750 H   0  0  0  0  0  0  0  0  0  0  0  0
  -10.2190    1.8820    2.3750 H   0  0  0  0  0  0  0  0  0  0  0  0
  -11.9760    2.8840    1.6420 C   0  0  0  0  0  0  0  0  0  0  0  0
  -12.3550    3.3190    0.7120 H   0  0  0  0  0  0  0  0  0  0  0  0
  -11.9410    3.6920    2.3800 H   0  0  0  0  0  0  0  0  0  0  0  0
  -12.6780    2.1200    1.9880 H   0  0  0  0  0  0  0  0  0  0  0  0
  1  2  1  0  0  0  0
  1  3  1  0  0  0  0
  1  7  2  0  0  0  0
  3  4  2  0  0  0  0
  4  5  1  0  0  0  0
  4 45  1  0  0  0  0
  5  6  2  0  0  0  0
  5  8  1  0  0  0  0
  6  7  1  0  0  0  0
  6 12  1  0  0  0  0
  7 34  1  0  0  0  0
  8  9  1  0  0  0  0
  8 10  1  0  0  0  0
 10 11  1  0  0  0  0
 10 12  2  0  0  0  0
 12 13  1  0  0  0  0
 13 14  1  0  0  0  0
 13 31  2  0  0  0  0
 14 15  1  0  0  0  0
 14 32  2  0  0  0  0
 15 16  1  0  0  0  0
 15 26  1  0  0  0  0
 16 17  1  0  0  0  0
 16 18  1  0  0  0  0
 16 19  1  0  0  0  0
 19 20  1  0  0  0  0
 19 21  1  0  0  0  0
 19 22  1  0  0  0  0
 22 23  1  0  0  0  0
 22 29  1  0  0  0  0
 23 24  1  0  0  0  0
 23 25  1  0  0  0  0
 23 26  1  0  0  0  0
 26 27  1  0  0  0  0
 26 28  1  0  0  0  0
 29 30  1  0  0  0  0
 29 33  2  0  0  0  0
 30 35  1  0  0  0  0
 30 43  2  0  0  0  0
 35 36  1  0  0  0  0
 35 37  2  0  0  0  0
 37 38  1  0  0  0  0
 37 39  1  0  0  0  0
 39 40  1  0  0  0  0
 39 41  2  0  0  0  0
 41 42  1  0  0  0  0
 41 43  1  0  0  0  0
 43 44  1  0  0  0  0
 45 46  1  0  0  0  0
 45 51  2  0  0  0  0
 46 47  1  0  0  0  0
 46 48  2  0  0  0  0
 48 49  1  0  0  0  0
 48 52  1  0  0  0  0
 49 50  1  0  0  0  0
 49 51  1  0  0  0  0
 52 53  1  0  0  0  0
 52 54  2  0  0  0  0
 53 55  1  0  0  0  0
 55 56  1  0  0  0  0
 55 57  1  0  0  0  0
 55 58  1  0  0  0  0
 58 59  1  0  0  0  0
 58 60  1  0  0  0  0
 58 61  1  0  0  0  0
M  END
>  <Activity>
10.2218

>  <AM1_dipole>
5.56318

>  <AM1_E>
-160742

>  <AM1_Eele>
-1.29559e+006

>  <AM1_HF>
-47.6805

>  <AM1_HOMO>
-8.87149

>  <AM1_IP>
8.87149

>  <AM1_LUMO>
-1.07704

>  <diameter>
21

>  <petitjean>
0.47619

>  <petitjeanSC>
0.909091

>  <radius>
11

>  <VDistEq>
4.06299

>  <VDistMa>
10.1765

>  <weinerPath>
5219

>  <weinerPol>
65

>  <BCUT_PEOE_0>
-2.71188

>  <BCUT_PEOE_1>
-0.633919

>  <BCUT_PEOE_2>
0.639459

>  <BCUT_PEOE_3>
2.65031

>  <BCUT_SLOGP_0>
-2.86001

>  <BCUT_SLOGP_1>
-0.53808

>  <BCUT_SLOGP_2>
0.780061

>  <BCUT_SLOGP_3>
2.50336

>  <BCUT_SMR_0>
-2.43203

>  <BCUT_SMR_1>
-0.418531

>  <BCUT_SMR_2>
0.854311

>  <BCUT_SMR_3>
2.92024

>  <GCUT_PEOE_0>
-0.85498

>  <GCUT_PEOE_1>
-0.403739

>  <GCUT_PEOE_2>
0.080099

>  <GCUT_PEOE_3>
2.72199

>  <GCUT_SLOGP_0>
-0.976496

>  <GCUT_SLOGP_1>
-0.350348

>  <GCUT_SLOGP_2>
0.164454

>  <GCUT_SLOGP_3>
2.70924

>  <GCUT_SMR_0>
-0.513654

>  <GCUT_SMR_1>
-0.216057

>  <GCUT_SMR_2>
0.199471

>  <GCUT_SMR_3>
2.993

>  <a_aro>
20

>  <a_count>
61

>  <a_IC>
108.402

>  <a_ICM>
1.77709

>  <a_nH>
23

>  <b_1rotN>
8

>  <b_1rotR>
0.190476

>  <b_ar>
21

>  <b_count>
65

>  <b_double>
4

>  <b_rotN>
9

>  <b_rotR>
0.214286

>  <b_single>
40

>  <b_triple>
0

>  <chi0v>
20.3624

>  <chi0v_C>
15.1543

>  <chi1v>
11.9506

>  <chi1v_C>
7.02249

>  <chiral>
0

>  <chiral_u>
0

>  <nmol>
1

>  <reactive>
0

>  <rings>
5

>  <Weight>
518.505

>  <a_heavy>
38

>  <a_nB>
0

>  <a_nBr>
0

>  <a_nC>
26

>  <a_nCl>
0

>  <a_nF>
1

>  <a_nI>
0

>  <a_nN>
6

>  <a_nO>
5

>  <a_nP>
0

>  <a_nS>
0

>  <b_heavy>
42

>  <chi0>
26.8108

>  <chi0_C>
17.1206

>  <chi1>
18.3842

>  <chi1_C>
9.1566

>  <FCharge>
0

>  <VAdjEq>
0.320144

>  <VAdjMa>
6.39232

>  <zagreb>
204

>  <balabanJ>
1.1527

>  <PEOE_PC+>
3.62593

>  <PEOE_PC->
-3.62593

>  <PEOE_RPC+>
0.0859623

>  <PEOE_RPC->
0.098783

>  <PEOE_VSA+0>
86.7285

>  <PEOE_VSA+1>
117.382

>  <PEOE_VSA+2>
20.0987

>  <PEOE_VSA+3>
26.2589

>  <PEOE_VSA+4>
0

>  <PEOE_VSA+5>
34.3576

>  <PEOE_VSA+6>
14.7085

>  <PEOE_VSA-0>
55.5124

>  <PEOE_VSA-1>
36.7647

>  <PEOE_VSA-2>
0

>  <PEOE_VSA-3>
9.42104

>  <PEOE_VSA-4>
17.5912

>  <PEOE_VSA-5>
58.143

>  <PEOE_VSA-6>
2.64065

>  <PEOE_VSA_FHYD>
0.734281

>  <PEOE_VSA_FNEG>
0.375459

>  <PEOE_VSA_FPNEG>
0.163415

>  <PEOE_VSA_FPOL>
0.265719

>  <PEOE_VSA_FPOS>
0.624541

>  <PEOE_VSA_FPPOS>
0.102305

>  <PEOE_VSA_HYD>
352.166

>  <PEOE_VSA_NEG>
180.073

>  <PEOE_VSA_PNEG>
78.3749

>  <PEOE_VSA_POL>
127.441

>  <PEOE_VSA_POS>
299.534

>  <PEOE_VSA_PPOS>
49.0661

>  <PC+>
7.223

>  <PC->
-7.224

>  <Q_PC+>
7.223

>  <Q_PC->
-7.224

>  <Q_RPC+>
0.11145

>  <Q_RPC->
0.0978682

>  <Q_VSA_FHYD>
0.485788

>  <Q_VSA_FNEG>
0.395462

>  <Q_VSA_FPNEG>
0.198747

>  <Q_VSA_FPOL>
0.514212

>  <Q_VSA_FPOS>
0.604538

>  <Q_VSA_FPPOS>
0.315465

>  <Q_VSA_HYD>
232.988

>  <Q_VSA_NEG>
189.667

>  <Q_VSA_PNEG>
95.3205

>  <Q_VSA_POL>
246.62

>  <Q_VSA_POS>
289.941

>  <Q_VSA_PPOS>
151.299

>  <RPC+>
0.11145

>  <RPC->
0.0978682

>  <lip_acc>
11

>  <lip_don>
2

>  <lip_druglike>
0

>  <lip_violation>
2

>  <opr_brigid>
27

>  <opr_leadlike>
0

>  <opr_nring>
5

>  <opr_nrot>
8

>  <opr_violation>
3

>  <E>
99.5518

>  <E_ang>
10.4086

>  <E_ele>
27.1903

>  <E_nb>
81.671

>  <E_oop>
0.0789073

>  <E_sol>
-27.4801

>  <E_stb>
0.794581

>  <E_str>
6.3331

>  <E_strain>
0.00691371

>  <E_tor>
0.265624

>  <E_vdw>
54.4807

>  <E_rele>
0

>  <E_rnb>
8.52651e-014

>  <E_rsol>
8.52651e-014

>  <E_rvdw>
0

>  <Kier1>
29.4909

>  <Kier2>
13.32

>  <Kier3>
6.42857

>  <KierA1>
20.3191

>  <KierA2>
9.07755

>  <KierA3>
4.34763

>  <KierFlex>
4.85388

>  <logS>
-4.72831

>  <MNDO_dipole>
5.15299

>  <MNDO_E>
-160968

>  <MNDO_Eele>
-1.28285e+006

>  <MNDO_HF>
-95.7224

>  <MNDO_HOMO>
-8.94703

>  <MNDO_IP>
8.94703

>  <MNDO_LUMO>
-1.11642

>  <apol>
72.2632

>  <bpol>
38.6948

>  <mr>
13.6029

>  <dipole>
1.26616

>  <dipoleX>
0.434563

>  <dipoleY>
-1.17435

>  <dipoleZ>
0.187627

>  <pmi>
19234.4

>  <pmiX>
12441.6

>  <pmiY>
5719.05

>  <pmiZ>
1073.71

>  <rgyr>
6.09064

>  <a_acc>
7

>  <a_acid>
0

>  <a_base>
0

>  <a_don>
3

>  <a_hyd>
23

>  <vsa_acc>
59.9503

>  <vsa_acid>
0

>  <vsa_base>
0

>  <vsa_don>
5.68258

>  <vsa_hyd>
322.468

>  <vsa_other>
51.5698

>  <vsa_pol>
84.4749

>  <PM3_dipole>
5.79304

>  <PM3_E>
-145628

>  <PM3_Eele>
-1.28121e+006

>  <PM3_HF>
-92.196

>  <PM3_HOMO>
-8.86009

>  <PM3_IP>
8.86009

>  <PM3_LUMO>
-1.17057

>  <SlogP>
2.4361

>  <SlogP_VSA0>
0

>  <SlogP_VSA1>
63.6478

>  <SlogP_VSA2>
77.4317

>  <SlogP_VSA3>
94.6846

>  <SlogP_VSA4>
80.7145

>  <SlogP_VSA5>
0

>  <SlogP_VSA6>
0

>  <SlogP_VSA7>
150.518

>  <SlogP_VSA8>
0

>  <SlogP_VSA9>
48.2861

>  <SMR>
13.2846

>  <SMR_VSA0>
106.449

>  <SMR_VSA1>
54.6573

>  <SMR_VSA2>
42.5696

>  <SMR_VSA3>
9.1279

>  <SMR_VSA4>
10.2306

>  <SMR_VSA5>
140.288

>  <SMR_VSA6>
118.635

>  <SMR_VSA7>
33.326

>  <ASA>
812.159

>  <ASA+>
312.527

>  <ASA->
275.996

>  <ASA_H>
542.035

>  <ASA_P>
270.124

>  <CASA+>
2257.38

>  <CASA->
1993.79

>  <DASA>
36.5314

>  <DCASA>
263.59

>  <FASA+>
0.38481

>  <FASA->
0.33983

>  <FASA_H>
0.6674

>  <FASA_P>
0.3326

>  <FCASA+>
2.77948

>  <FCASA->
2.45493

>  <VSA>
508.782

>  <TPSA>
141.35

>  <density>
0.806067

>  <vdw_area>
479.607

>  <vdw_vol>
643.253

>  <vsurf_A>
1.59757

>  <vsurf_CP>
0.0619446

>  <vsurf_CW1>
2.62347

>  <vsurf_CW2>
2.10807

>  <vsurf_CW3>
1.54265

>  <vsurf_CW4>
0.780782

>  <vsurf_CW5>
0.366185

>  <vsurf_CW6>
0.149339

>  <vsurf_CW7>
0.0423615

>  <vsurf_CW8>
0.0163118

>  <vsurf_D1>
1053.63

>  <vsurf_D2>
627.125

>  <vsurf_D3>
473.25

>  <vsurf_D4>
394.625

>  <vsurf_D5>
332.5

>  <vsurf_D6>
241.375

>  <vsurf_D7>
146.25

>  <vsurf_D8>
90.5

>  <vsurf_DD12>
0.5

>  <vsurf_DD13>
0.866025

>  <vsurf_DD23>
0.707107

>  <vsurf_DW12>
0.707107

>  <vsurf_DW13>
4.06202

>  <vsurf_DW23>
4.47214

>  <vsurf_EDmin1>
-2.88198

>  <vsurf_EDmin2>
-2.85376

>  <vsurf_EDmin3>
-2.76289

>  <vsurf_EWmin1>
-7.795

>  <vsurf_EWmin2>
-7.36521

>  <vsurf_EWmin3>
-7.28115

>  <vsurf_G>
1.4656

>  <vsurf_HB1>
466

>  <vsurf_HB2>
570

>  <vsurf_HB3>
508.75

>  <vsurf_HB4>
214.625

>  <vsurf_HB5>
83.25

>  <vsurf_HB6>
31.75

>  <vsurf_HB7>
9.25

>  <vsurf_HB8>
3.25

>  <vsurf_HL1>
0.198098

>  <vsurf_HL2>
0.0855242

>  <vsurf_ID1>
0.808354

>  <vsurf_ID2>
0.767956

>  <vsurf_ID3>
0.814431

>  <vsurf_ID4>
0.939405

>  <vsurf_ID5>
1.16379

>  <vsurf_ID6>
2.22393

>  <vsurf_ID7>
1.27337

>  <vsurf_ID8>
0.794219

>  <vsurf_IW1>
0.30395

>  <vsurf_IW2>
0.496548

>  <vsurf_IW3>
0.915752

>  <vsurf_IW4>
1.27127

>  <vsurf_IW5>
1.53534

>  <vsurf_IW6>
2.88966

>  <vsurf_IW7>
4.87085

>  <vsurf_IW8>
5.87684

>  <vsurf_R>
1.44242

>  <vsurf_S>
740.768

>  <vsurf_V>
1068.5

>  <vsurf_W1>
1814.75

>  <vsurf_W2>
1148.5

>  <vsurf_W3>
645.375

>  <vsurf_W4>
243.375

>  <vsurf_W5>
93.75

>  <vsurf_W6>
33.75

>  <vsurf_W7>
9.375

>  <vsurf_W8>
3.25

>  <vsurf_Wp1>
1348.75

>  <vsurf_Wp2>
578.5

>  <vsurf_Wp3>
136.625

>  <vsurf_Wp4>
28.75

>  <vsurf_Wp5>
10.5

>  <vsurf_Wp6>
2

>  <vsurf_Wp7>
0.125

>  <vsurf_Wp8>
0

>  <dens>
1.12291

>  <glob>
0.0337129

>  <std_dim1>
6.26351

>  <std_dim2>
1.92775

>  <std_dim3>
1.15005

>  <vol>
461.75

>  <logP(o/w)>
2.14806

$$$$
D16.cdx
  MOE2008           3D

 56 60  0  0  0  0  0  0  0  0999 V2000
   -6.2870    3.8630   -0.2030 C   0  0  0  0  0  0  0  0  0  0  0  0
   -7.1210    4.5110   -0.4570 H   0  0  0  0  0  0  0  0  0  0  0  0
   -6.4980    2.5440   -0.4160 N   0  0  0  0  0  0  0  0  0  0  0  0
   -5.5060    1.6530   -0.1290 C   0  0  0  0  0  0  0  0  0  0  0  0
   -4.3030    2.1620    0.3840 C   0  0  0  0  0  0  0  0  0  0  0  0
   -4.0720    3.5200    0.6070 C   0  0  0  0  0  0  0  0  0  0  0  0
   -5.1140    4.4060    0.2970 C   0  0  0  0  0  0  0  0  0  0  0  0
   -3.1600    1.4880    0.7530 N   0  0  0  0  0  0  0  0  0  0  0  0
   -3.0760    0.4780    0.6860 H   0  0  0  0  0  0  0  0  0  0  0  0
   -2.2140    2.3650    1.1940 C   0  0  0  0  0  0  0  0  0  0  0  0
   -1.2490    1.9980    1.5230 H   0  0  0  0  0  0  0  0  0  0  0  0
   -2.7360    3.6450    1.1190 C   0  0  0  0  0  0  0  0  0  0  0  0
   -2.0100    4.8560    1.4810 C   0  0  0  0  0  0  0  0  0  0  0  0
   -0.5500    4.7520    1.8780 C   0  0  0  0  0  0  0  0  0  0  0  0
    0.3840    4.8250    0.8490 N   0  0  0  0  0  0  0  0  0  0  0  0
    1.8070    4.6590    1.1480 C   0  0  0  0  0  0  0  0  0  0  0  0
    1.9780    4.5950    2.2270 H   0  0  0  0  0  0  0  0  0  0  0  0
    2.1090    3.7010    0.7080 H   0  0  0  0  0  0  0  0  0  0  0  0
    2.6510    5.7950    0.5510 C   0  0  0  0  0  0  0  0  0  0  0  0
    3.7070    5.5560    0.6920 H   0  0  0  0  0  0  0  0  0  0  0  0
    2.4390    6.7370    1.0710 H   0  0  0  0  0  0  0  0  0  0  0  0
    2.3240    6.0070   -0.8690 N   0  0  0  0  0  0  0  0  0  0  0  0
    0.8970    6.1890   -1.1500 C   0  0  0  0  0  0  0  0  0  0  0  0
    0.6030    7.1380   -0.6850 H   0  0  0  0  0  0  0  0  0  0  0  0
    0.7120    6.2790   -2.2250 H   0  0  0  0  0  0  0  0  0  0  0  0
    0.0650    5.0430   -0.5700 C   0  0  0  0  0  0  0  0  0  0  0  0
    0.2970    4.1070   -1.0910 H   0  0  0  0  0  0  0  0  0  0  0  0
   -0.9960    5.2520   -0.7190 H   0  0  0  0  0  0  0  0  0  0  0  0
    3.2320    6.0340   -1.9240 C   0  0  0  0  0  0  0  0  0  0  0  0
    4.6810    6.0660   -1.6230 C   0  0  0  0  0  0  0  0  0  0  0  0
   -2.4990    5.9800    1.4570 O   0  0  0  0  0  0  0  0  0  0  0  0
   -0.2970    4.5770    3.0640 O   0  0  0  0  0  0  0  0  0  0  0  0
    2.9100    6.0330   -3.1090 O   0  0  0  0  0  0  0  0  0  0  0  0
   -5.0210    5.7310    0.4590 F   0  0  0  0  0  0  0  0  0  0  0  0
    5.5000    5.0570   -2.1400 C   0  0  0  0  0  0  0  0  0  0  0  0
    5.0730    4.2530   -2.7330 H   0  0  0  0  0  0  0  0  0  0  0  0
    6.8720    5.0910   -1.8920 C   0  0  0  0  0  0  0  0  0  0  0  0
    7.5160    4.3100   -2.2870 H   0  0  0  0  0  0  0  0  0  0  0  0
    7.4200    6.1350   -1.1440 C   0  0  0  0  0  0  0  0  0  0  0  0
    8.4910    6.1610   -0.9550 H   0  0  0  0  0  0  0  0  0  0  0  0
    6.6020    7.1530   -0.6480 C   0  0  0  0  0  0  0  0  0  0  0  0
    7.0380    7.9690   -0.0780 H   0  0  0  0  0  0  0  0  0  0  0  0
    5.2290    7.1260   -0.8930 C   0  0  0  0  0  0  0  0  0  0  0  0
    4.5980    7.9290   -0.5230 H   0  0  0  0  0  0  0  0  0  0  0  0
   -5.7060    0.2220   -0.3570 C   0  0  0  0  0  0  0  0  0  0  0  0
   -6.8810   -0.4110   -0.8480 C   0  0  0  0  0  0  0  0  0  0  0  0
   -7.8040    0.0780   -1.1250 H   0  0  0  0  0  0  0  0  0  0  0  0
   -6.5940   -1.7600   -0.8930 C   0  0  0  0  0  0  0  0  0  0  0  0
   -5.3060   -1.8560   -0.4410 N   0  0  0  0  0  0  0  0  0  0  0  0
   -4.7610   -2.7050   -0.3370 H   0  0  0  0  0  0  0  0  0  0  0  0
   -4.7410   -0.6840   -0.1130 N   0  0  0  0  0  0  0  0  0  0  0  0
   -7.3470   -2.9170   -1.2890 C   0  0  0  0  0  0  0  0  0  0  0  0
   -6.8890   -4.0550   -1.2480 O   0  0  0  0  0  0  0  0  0  0  0  0
   -8.6230   -2.6890   -1.7230 N   0  0  0  0  0  0  0  0  0  0  0  0
   -9.1790   -3.4840   -2.0090 H   0  0  0  0  0  0  0  0  0  0  0  0
   -9.0370   -1.7700   -1.7720 H   0  0  0  0  0  0  0  0  0  0  0  0
  1  2  1  0  0  0  0
  1  3  1  0  0  0  0
  1  7  2  0  0  0  0
  3  4  2  0  0  0  0
  4  5  1  0  0  0  0
  4 45  1  0  0  0  0
  5  6  2  0  0  0  0
  5  8  1  0  0  0  0
  6  7  1  0  0  0  0
  6 12  1  0  0  0  0
  7 34  1  0  0  0  0
  8  9  1  0  0  0  0
  8 10  1  0  0  0  0
 10 11  1  0  0  0  0
 10 12  2  0  0  0  0
 12 13  1  0  0  0  0
 13 14  1  0  0  0  0
 13 31  2  0  0  0  0
 14 15  1  0  0  0  0
 14 32  2  0  0  0  0
 15 16  1  0  0  0  0
 15 26  1  0  0  0  0
 16 17  1  0  0  0  0
 16 18  1  0  0  0  0
 16 19  1  0  0  0  0
 19 20  1  0  0  0  0
 19 21  1  0  0  0  0
 19 22  1  0  0  0  0
 22 23  1  0  0  0  0
 22 29  1  0  0  0  0
 23 24  1  0  0  0  0
 23 25  1  0  0  0  0
 23 26  1  0  0  0  0
 26 27  1  0  0  0  0
 26 28  1  0  0  0  0
 29 30  1  0  0  0  0
 29 33  2  0  0  0  0
 30 35  1  0  0  0  0
 30 43  2  0  0  0  0
 35 36  1  0  0  0  0
 35 37  2  0  0  0  0
 37 38  1  0  0  0  0
 37 39  1  0  0  0  0
 39 40  1  0  0  0  0
 39 41  2  0  0  0  0
 41 42  1  0  0  0  0
 41 43  1  0  0  0  0
 43 44  1  0  0  0  0
 45 46  1  0  0  0  0
 45 51  2  0  0  0  0
 46 47  1  0  0  0  0
 46 48  2  0  0  0  0
 48 49  1  0  0  0  0
 48 52  1  0  0  0  0
 49 50  1  0  0  0  0
 49 51  1  0  0  0  0
 52 53  2  0  0  0  0
 52 54  1  0  0  0  0
 54 55  1  0  0  0  0
 54 56  1  0  0  0  0
M  END
>  <Activity>
10.5228

>  <AM1_dipole>
3.60511

>  <AM1_E>
-151267

>  <AM1_Eele>
-1.18961e+006

>  <AM1_HF>
21.8387

>  <AM1_HOMO>
-8.88615

>  <AM1_IP>
8.88615

>  <AM1_LUMO>
-1.08018

>  <diameter>
19

>  <petitjean>
0.473684

>  <petitjeanSC>
0.9

>  <radius>
10

>  <VDistEq>
3.9705

>  <VDistMa>
10.0221

>  <weinerPath>
4428

>  <weinerPol>
62

>  <BCUT_PEOE_0>
-2.71188

>  <BCUT_PEOE_1>
-0.642962

>  <BCUT_PEOE_2>
0.674139

>  <BCUT_PEOE_3>
2.65031

>  <BCUT_SLOGP_0>
-2.86001

>  <BCUT_SLOGP_1>
-0.565446

>  <BCUT_SLOGP_2>
0.770707

>  <BCUT_SLOGP_3>
2.50336

>  <BCUT_SMR_0>
-2.43203

>  <BCUT_SMR_1>
-0.472752

>  <BCUT_SMR_2>
0.840064

>  <BCUT_SMR_3>
2.92024

>  <GCUT_PEOE_0>
-0.854999

>  <GCUT_PEOE_1>
-0.427016

>  <GCUT_PEOE_2>
0.080283

>  <GCUT_PEOE_3>
2.7104

>  <GCUT_SLOGP_0>
-1.37036

>  <GCUT_SLOGP_1>
-0.351031

>  <GCUT_SLOGP_2>
0.184965

>  <GCUT_SLOGP_3>
2.69361

>  <GCUT_SMR_0>
-0.508915

>  <GCUT_SMR_1>
-0.221021

>  <GCUT_SMR_2>
0.22955

>  <GCUT_SMR_3>
2.98251

>  <a_aro>
20

>  <a_count>
56

>  <a_IC>
101.083

>  <a_ICM>
1.80505

>  <a_nH>
20

>  <b_1rotN>
7

>  <b_1rotR>
0.175

>  <b_ar>
21

>  <b_count>
60

>  <b_double>
4

>  <b_rotN>
7

>  <b_rotR>
0.175

>  <b_single>
35

>  <b_triple>
0

>  <chi0v>
18.8244

>  <chi0v_C>
13.4472

>  <chi1v>
11.0394

>  <chi1v_C>
6.31538

>  <chiral>
0

>  <chiral_u>
0

>  <nmol>
1

>  <reactive>
0

>  <rings>
5

>  <Weight>
489.467

>  <a_heavy>
36

>  <a_nB>
0

>  <a_nBr>
0

>  <a_nC>
24

>  <a_nCl>
0

>  <a_nF>
1

>  <a_nI>
0

>  <a_nN>
7

>  <a_nO>
4

>  <a_nP>
0

>  <a_nS>
0

>  <b_heavy>
40

>  <chi0>
25.3966

>  <chi0_C>
15.4135

>  <chi1>
17.3462

>  <chi1_C>
8.44949

>  <FCharge>
0

>  <VAdjEq>
0.334268

>  <VAdjMa>
6.32193

>  <zagreb>
196

>  <balabanJ>
1.16241

>  <PEOE_PC+>
3.64873

>  <PEOE_PC->
-3.64873

>  <PEOE_RPC+>
0.0808776

>  <PEOE_RPC->
0.0999312

>  <PEOE_VSA+0>
73.9323

>  <PEOE_VSA+1>
93.9002

>  <PEOE_VSA+2>
20.0987

>  <PEOE_VSA+3>
43.4969

>  <PEOE_VSA+4>
0

>  <PEOE_VSA+5>
47.3071

>  <PEOE_VSA+6>
0

>  <PEOE_VSA-0>
36.7647

>  <PEOE_VSA-1>
36.7647

>  <PEOE_VSA-2>
0

>  <PEOE_VSA-3>
9.42104

>  <PEOE_VSA-4>
17.5912

>  <PEOE_VSA-5>
58.143

>  <PEOE_VSA-6>
6.78801

>  <PEOE_VSA_FHYD>
0.707728

>  <PEOE_VSA_FNEG>
0.372512

>  <PEOE_VSA_FPNEG>
0.185774

>  <PEOE_VSA_FPOL>
0.292272

>  <PEOE_VSA_FPOS>
0.627488

>  <PEOE_VSA_FPPOS>
0.106498

>  <PEOE_VSA_HYD>
314.378

>  <PEOE_VSA_NEG>
165.473

>  <PEOE_VSA_PNEG>
82.5223

>  <PEOE_VSA_POL>
129.829

>  <PEOE_VSA_POS>
278.735

>  <PEOE_VSA_PPOS>
47.3071

>  <PC+>
7.593

>  <PC->
-7.594

>  <Q_PC+>
7.593

>  <Q_PC->
-7.594

>  <Q_RPC+>
0.0941657

>  <Q_RPC->
0.105346

>  <Q_VSA_FHYD>
0.434286

>  <Q_VSA_FNEG>
0.436314

>  <Q_VSA_FPNEG>
0.223922

>  <Q_VSA_FPOL>
0.565714

>  <Q_VSA_FPOS>
0.563686

>  <Q_VSA_FPPOS>
0.341793

>  <Q_VSA_HYD>
192.913

>  <Q_VSA_NEG>
193.814

>  <Q_VSA_PNEG>
99.4679

>  <Q_VSA_POL>
251.295

>  <Q_VSA_POS>
250.394

>  <Q_VSA_PPOS>
151.827

>  <RPC+>
0.0941657

>  <RPC->
0.105346

>  <lip_acc>
11

>  <lip_don>
3

>  <lip_druglike>
1

>  <lip_violation>
1

>  <opr_brigid>
27

>  <opr_leadlike>
0

>  <opr_nring>
5

>  <opr_nrot>
7

>  <opr_violation>
3

>  <E>
88.0008

>  <E_ang>
10.7728

>  <E_ele>
15.2047

>  <E_nb>
67.6195

>  <E_oop>
0.0752729

>  <E_sol>
-32.6506

>  <E_stb>
0.64469

>  <E_str>
6.20571

>  <E_strain>
0.00530966

>  <E_tor>
2.68287

>  <E_vdw>
52.4148

>  <E_rele>
0

>  <E_rnb>
-4.26326e-014

>  <E_rsol>
-4.26326e-014

>  <E_rvdw>
0

>  <Kier1>
27.5625

>  <Kier2>
12.0273

>  <Kier3>
5.81436

>  <KierA1>
18.263

>  <KierA2>
7.86734

>  <KierA3>
3.76904

>  <KierFlex>
3.99114

>  <logS>
-4.27149

>  <MNDO_dipole>
4.28769

>  <MNDO_E>
-151433

>  <MNDO_Eele>
-1.17791e+006

>  <MNDO_HF>
-19.5723

>  <MNDO_HOMO>
-9.0698

>  <MNDO_IP>
9.0698

>  <MNDO_LUMO>
-1.08082

>  <apol>
67.0409

>  <bpol>
32.8391

>  <mr>
12.7344

>  <dipole>
0.772785

>  <dipoleX>
0.190711

>  <dipoleY>
-0.742943

>  <dipoleZ>
-0.0941395

>  <pmi>
16109.1

>  <pmiX>
10376.9

>  <pmiY>
4881.87

>  <pmiZ>
850.339

>  <rgyr>
5.73686

>  <a_acc>
7

>  <a_acid>
0

>  <a_base>
0

>  <a_don>
4

>  <a_hyd>
21

>  <vsa_acc>
59.9503

>  <vsa_acid>
0

>  <vsa_base>
0

>  <vsa_don>
23.4251

>  <vsa_hyd>
271.001

>  <vsa_other>
47.3071

>  <vsa_pol>
102.217

>  <PM3_dipole>
4.55772

>  <PM3_E>
-136065

>  <PM3_Eele>
-1.16871e+006

>  <PM3_HF>
-60.4032

>  <PM3_HOMO>
-8.87213

>  <PM3_IP>
8.87213

>  <PM3_LUMO>
-1.15709

>  <SlogP>
1.3583

>  <SlogP_VSA0>
32.8972

>  <SlogP_VSA1>
61.1611

>  <SlogP_VSA2>
66.4318

>  <SlogP_VSA3>
73.7583

>  <SlogP_VSA4>
80.7145

>  <SlogP_VSA5>
0

>  <SlogP_VSA6>
0

>  <SlogP_VSA7>
150.518

>  <SlogP_VSA8>
0

>  <SlogP_VSA9>
14.9601

>  <SMR>
12.5407

>  <SMR_VSA0>
95.4489

>  <SMR_VSA1>
54.6573

>  <SMR_VSA2>
42.5696

>  <SMR_VSA3>
9.1279

>  <SMR_VSA4>
43.1278

>  <SMR_VSA5>
140.288

>  <SMR_VSA6>
95.2223

>  <SMR_VSA7>
0

>  <ASA>
750.524

>  <ASA+>
351.06

>  <ASA->
296.89

>  <ASA_H>
419.682

>  <ASA_P>
330.842

>  <CASA+>
2665.6

>  <CASA->
2254.58

>  <DASA>
54.1704

>  <DCASA>
411.019

>  <FASA+>
0.467753

>  <FASA->
0.395577

>  <FASA_H>
0.559185

>  <FASA_P>
0.440815

>  <FCASA+>
3.55165

>  <FCASA->
3.00401

>  <VSA>
469.336

>  <TPSA>
158.14

>  <density>
0.817953

>  <vdw_area>
444.208

>  <vdw_vol>
598.405

>  <vsurf_A>
4.73574

>  <vsurf_CP>
0.0511745

>  <vsurf_CW1>
2.71676

>  <vsurf_CW2>
2.36222

>  <vsurf_CW3>
1.76477

>  <vsurf_CW4>
0.914953

>  <vsurf_CW5>
0.468173

>  <vsurf_CW6>
0.218355

>  <vsurf_CW7>
0.0737544

>  <vsurf_CW8>
0.0224888

>  <vsurf_D1>
970

>  <vsurf_D2>
578.5

>  <vsurf_D3>
421.125

>  <vsurf_D4>
342.625

>  <vsurf_D5>
286

>  <vsurf_D6>
229.375

>  <vsurf_D7>
145.25

>  <vsurf_D8>
91

>  <vsurf_DD12>
0.707107

>  <vsurf_DD13>
0.5

>  <vsurf_DD23>
0.866025

>  <vsurf_DW12>
0.5

>  <vsurf_DW13>
4.33013

>  <vsurf_DW23>
4.41588

>  <vsurf_EDmin1>
-2.8573

>  <vsurf_EDmin2>
-2.71042

>  <vsurf_EDmin3>
-2.6977

>  <vsurf_EWmin1>
-7.61252

>  <vsurf_EWmin2>
-7.35538

>  <vsurf_EWmin3>
-7.23534

>  <vsurf_G>
1.42907

>  <vsurf_HB1>
426.25

>  <vsurf_HB2>
521.875

>  <vsurf_HB3>
479.875

>  <vsurf_HB4>
220.375

>  <vsurf_HB5>
93

>  <vsurf_HB6>
39.375

>  <vsurf_HB7>
14.125

>  <vsurf_HB8>
4

>  <vsurf_HL1>
0.274265

>  <vsurf_HL2>
0.130974

>  <vsurf_ID1>
1.19483

>  <vsurf_ID2>
1.055

>  <vsurf_ID3>
1.30747

>  <vsurf_ID4>
1.82462

>  <vsurf_ID5>
2.37468

>  <vsurf_ID6>
2.43423

>  <vsurf_ID7>
0.897687

>  <vsurf_ID8>
1.03595

>  <vsurf_IW1>
0.886454

>  <vsurf_IW2>
1.73672

>  <vsurf_IW3>
2.32973

>  <vsurf_IW4>
2.80521

>  <vsurf_IW5>
3.77819

>  <vsurf_IW6>
4.73605

>  <vsurf_IW7>
6.84809

>  <vsurf_IW8>
7.69669

>  <vsurf_R>
1.43946

>  <vsurf_S>
683.936

>  <vsurf_V>
984.5

>  <vsurf_W1>
1826.25

>  <vsurf_W2>
1213.5

>  <vsurf_W3>
699.625

>  <vsurf_W4>
277.375

>  <vsurf_W5>
115.5

>  <vsurf_W6>
44.875

>  <vsurf_W7>
14.625

>  <vsurf_W8>
4

>  <vsurf_Wp1>
1400

>  <vsurf_Wp2>
691.625

>  <vsurf_Wp3>
219.75

>  <vsurf_Wp4>
57

>  <vsurf_Wp5>
22.5

>  <vsurf_Wp6>
5.5

>  <vsurf_Wp7>
0.5

>  <vsurf_Wp8>
0

>  <dens>
1.14228

>  <glob>
0.0433583

>  <std_dim1>
5.60277

>  <std_dim2>
1.87692

>  <std_dim3>
1.16665

>  <vol>
428.5

>  <logP(o/w)>
0.80906

$$$$
D16.cdx
  MOE2008           3D

 59 63  0  0  0  0  0  0  0  0999 V2000
   -5.7570   -1.6530   -0.0110 C   0  0  0  0  0  0  0  0  0  0  0  0
   -6.5870   -1.0410    0.3290 H   0  0  0  0  0  0  0  0  0  0  0  0
   -5.9390   -2.9880    0.1090 N   0  0  0  0  0  0  0  0  0  0  0  0
   -4.9480   -3.8370   -0.2920 C   0  0  0  0  0  0  0  0  0  0  0  0
   -3.7780   -3.2680   -0.8190 C   0  0  0  0  0  0  0  0  0  0  0  0
   -3.5770   -1.8930   -0.9460 C   0  0  0  0  0  0  0  0  0  0  0  0
   -4.6170   -1.0530   -0.5210 C   0  0  0  0  0  0  0  0  0  0  0  0
   -2.6450   -3.8910   -1.2910 N   0  0  0  0  0  0  0  0  0  0  0  0
   -2.5440   -4.9020   -1.3070 H   0  0  0  0  0  0  0  0  0  0  0  0
   -1.7330   -2.9660   -1.7050 C   0  0  0  0  0  0  0  0  0  0  0  0
   -0.7800   -3.2900   -2.1050 H   0  0  0  0  0  0  0  0  0  0  0  0
   -2.2690   -1.7050   -1.5060 C   0  0  0  0  0  0  0  0  0  0  0  0
   -1.5780   -0.4580   -1.8060 C   0  0  0  0  0  0  0  0  0  0  0  0
   -0.1380   -0.5050   -2.2810 C   0  0  0  0  0  0  0  0  0  0  0  0
    0.8460   -0.4960   -1.2970 N   0  0  0  0  0  0  0  0  0  0  0  0
    2.2540   -0.6120   -1.6790 C   0  0  0  0  0  0  0  0  0  0  0  0
    2.5920   -1.5960   -1.3300 H   0  0  0  0  0  0  0  0  0  0  0  0
    2.3700   -0.5890   -2.7670 H   0  0  0  0  0  0  0  0  0  0  0  0
    3.1100    0.4900   -1.0370 C   0  0  0  0  0  0  0  0  0  0  0  0
    2.8570    1.4650   -1.4700 H   0  0  0  0  0  0  0  0  0  0  0  0
    4.1610    0.2840   -1.2490 H   0  0  0  0  0  0  0  0  0  0  0  0
    2.8530    0.5850    0.4100 N   0  0  0  0  0  0  0  0  0  0  0  0
    1.4390    0.7160    0.7760 C   0  0  0  0  0  0  0  0  0  0  0  0
    1.3080    0.7180    1.8620 H   0  0  0  0  0  0  0  0  0  0  0  0
    1.1070    1.6930    0.4030 H   0  0  0  0  0  0  0  0  0  0  0  0
    0.5960   -0.3960    0.1490 C   0  0  0  0  0  0  0  0  0  0  0  0
   -0.4590   -0.2200    0.3670 H   0  0  0  0  0  0  0  0  0  0  0  0
    0.8680   -1.3660    0.5820 H   0  0  0  0  0  0  0  0  0  0  0  0
    3.8130    0.5480    1.4170 C   0  0  0  0  0  0  0  0  0  0  0  0
    5.2440    0.6300    1.0460 C   0  0  0  0  0  0  0  0  0  0  0  0
   -2.0790    0.6530   -1.6680 O   0  0  0  0  0  0  0  0  0  0  0  0
    0.0570   -0.5820   -3.4890 O   0  0  0  0  0  0  0  0  0  0  0  0
    3.5530    0.4500    2.6130 O   0  0  0  0  0  0  0  0  0  0  0  0
   -4.5500    0.2820   -0.5830 F   0  0  0  0  0  0  0  0  0  0  0  0
    5.7380    1.7550    0.3780 C   0  0  0  0  0  0  0  0  0  0  0  0
    5.0770    2.5740    0.1070 H   0  0  0  0  0  0  0  0  0  0  0  0
    7.0960    1.8260    0.0650 C   0  0  0  0  0  0  0  0  0  0  0  0
    7.4890    2.6940   -0.4590 H   0  0  0  0  0  0  0  0  0  0  0  0
    7.9530    0.7870    0.4330 C   0  0  0  0  0  0  0  0  0  0  0  0
    9.0110    0.8470    0.1920 H   0  0  0  0  0  0  0  0  0  0  0  0
    7.4590   -0.3230    1.1220 C   0  0  0  0  0  0  0  0  0  0  0  0
    8.1340   -1.1230    1.4180 H   0  0  0  0  0  0  0  0  0  0  0  0
    6.1030   -0.4020    1.4360 C   0  0  0  0  0  0  0  0  0  0  0  0
    5.7180   -1.2590    1.9830 H   0  0  0  0  0  0  0  0  0  0  0  0
   -5.1160   -5.2840   -0.1670 C   0  0  0  0  0  0  0  0  0  0  0  0
   -6.2570   -5.9750    0.3260 C   0  0  0  0  0  0  0  0  0  0  0  0
   -7.1640   -5.5050    0.6770 H   0  0  0  0  0  0  0  0  0  0  0  0
   -5.9570   -7.3190    0.2580 C   0  0  0  0  0  0  0  0  0  0  0  0
   -4.6870   -7.3510   -0.2590 N   0  0  0  0  0  0  0  0  0  0  0  0
   -4.1370   -8.1820   -0.4510 H   0  0  0  0  0  0  0  0  0  0  0  0
   -4.1520   -6.1510   -0.5230 N   0  0  0  0  0  0  0  0  0  0  0  0
   -6.6330   -8.5510    0.5810 C   0  0  0  0  0  0  0  0  0  0  0  0
   -7.9040   -8.5690    1.1000 N   0  0  0  0  0  0  0  0  0  0  0  0
   -8.2410   -9.5090    1.2740 H   0  0  0  0  0  0  0  0  0  0  0  0
   -6.0780   -9.6360    0.3980 O   0  0  0  0  0  0  0  0  0  0  0  0
   -8.7910   -7.4770    1.4190 C   0  0  0  0  0  0  0  0  0  0  0  0
   -9.0090   -6.9070    0.5130 H   0  0  0  0  0  0  0  0  0  0  0  0
   -8.3300   -6.8420    2.1780 H   0  0  0  0  0  0  0  0  0  0  0  0
   -9.7210   -7.8950    1.8140 H   0  0  0  0  0  0  0  0  0  0  0  0
  1  2  1  0  0  0  0
  1  3  1  0  0  0  0
  1  7  2  0  0  0  0
  3  4  2  0  0  0  0
  4  5  1  0  0  0  0
  4 45  1  0  0  0  0
  5  6  2  0  0  0  0
  5  8  1  0  0  0  0
  6  7  1  0  0  0  0
  6 12  1  0  0  0  0
  7 34  1  0  0  0  0
  8  9  1  0  0  0  0
  8 10  1  0  0  0  0
 10 11  1  0  0  0  0
 10 12  2  0  0  0  0
 12 13  1  0  0  0  0
 13 14  1  0  0  0  0
 13 31  2  0  0  0  0
 14 15  1  0  0  0  0
 14 32  2  0  0  0  0
 15 16  1  0  0  0  0
 15 26  1  0  0  0  0
 16 17  1  0  0  0  0
 16 18  1  0  0  0  0
 16 19  1  0  0  0  0
 19 20  1  0  0  0  0
 19 21  1  0  0  0  0
 19 22  1  0  0  0  0
 22 23  1  0  0  0  0
 22 29  1  0  0  0  0
 23 24  1  0  0  0  0
 23 25  1  0  0  0  0
 23 26  1  0  0  0  0
 26 27  1  0  0  0  0
 26 28  1  0  0  0  0
 29 30  1  0  0  0  0
 29 33  2  0  0  0  0
 30 35  1  0  0  0  0
 30 43  2  0  0  0  0
 35 36  1  0  0  0  0
 35 37  2  0  0  0  0
 37 38  1  0  0  0  0
 37 39  1  0  0  0  0
 39 40  1  0  0  0  0
 39 41  2  0  0  0  0
 41 42  1  0  0  0  0
 41 43  1  0  0  0  0
 43 44  1  0  0  0  0
 45 46  1  0  0  0  0
 45 51  2  0  0  0  0
 46 47  1  0  0  0  0
 46 48  2  0  0  0  0
 48 49  1  0  0  0  0
 48 52  1  0  0  0  0
 49 50  1  0  0  0  0
 49 51  1  0  0  0  0
 52 53  1  0  0  0  0
 52 55  2  0  0  0  0
 53 54  1  0  0  0  0
 53 56  1  0  0  0  0
 56 57  1  0  0  0  0
 56 58  1  0  0  0  0
 56 59  1  0  0  0  0
M  END
>  <Activity>
10.2218

>  <AM1_dipole>
3.61656

>  <AM1_E>
-154849

>  <AM1_Eele>
-1.24233e+006

>  <AM1_HF>
4.98248

>  <AM1_HOMO>
-8.85891

>  <AM1_IP>
8.85891

>  <AM1_LUMO>
-1.04149

>  <diameter>
20

>  <petitjean>
0.5

>  <petitjeanSC>
1

>  <radius>
10

>  <VDistEq>
4.01417

>  <VDistMa>
10.1007

>  <weinerPath>
4805

>  <weinerPol>
64

>  <BCUT_PEOE_0>
-2.71188

>  <BCUT_PEOE_1>
-0.622645

>  <BCUT_PEOE_2>
0.656547

>  <BCUT_PEOE_3>
2.65031

>  <BCUT_SLOGP_0>
-2.86001

>  <BCUT_SLOGP_1>
-0.562428

>  <BCUT_SLOGP_2>
0.754625

>  <BCUT_SLOGP_3>
2.50336

>  <BCUT_SMR_0>
-2.43203

>  <BCUT_SMR_1>
-0.416065

>  <BCUT_SMR_2>
0.819857

>  <BCUT_SMR_3>
2.92024

>  <GCUT_PEOE_0>
-0.855035

>  <GCUT_PEOE_1>
-0.427013

>  <GCUT_PEOE_2>
0.0802336

>  <GCUT_PEOE_3>
2.71933

>  <GCUT_SLOGP_0>
-1.16077

>  <GCUT_SLOGP_1>
-0.350993

>  <GCUT_SLOGP_2>
0.168204

>  <GCUT_SLOGP_3>
2.70353

>  <GCUT_SMR_0>
-0.508916

>  <GCUT_SMR_1>
-0.220998

>  <GCUT_SMR_2>
0.209981

>  <GCUT_SMR_3>
2.99163

>  <a_aro>
20

>  <a_count>
59

>  <a_IC>
105.221

>  <a_ICM>
1.7834

>  <a_nH>
22

>  <b_1rotN>
7

>  <b_1rotR>
0.170732

>  <b_ar>
21

>  <b_count>
63

>  <b_double>
4

>  <b_rotN>
8

>  <b_rotR>
0.195122

>  <b_single>
38

>  <b_triple>
0

>  <chi0v>
19.747

>  <chi0v_C>
14.4472

>  <chi1v>
11.5007

>  <chi1v_C>
6.31538

>  <chiral>
0

>  <chiral_u>
0

>  <nmol>
1

>  <reactive>
0

>  <rings>
5

>  <Weight>
503.494

>  <a_heavy>
37

>  <a_nB>
0

>  <a_nBr>
0

>  <a_nC>
25

>  <a_nCl>
0

>  <a_nF>
1

>  <a_nI>
0

>  <a_nN>
7

>  <a_nO>
4

>  <a_nP>
0

>  <a_nS>
0

>  <b_heavy>
41

>  <chi0>
26.1037

>  <chi0_C>
16.4135

>  <chi1>
17.8842

>  <chi1_C>
8.44949

>  <FCharge>
0

>  <VAdjEq>
0.327039

>  <VAdjMa>
6.35755

>  <zagreb>
200

>  <balabanJ>
1.15911

>  <PEOE_PC+>
3.63769

>  <PEOE_PC->
-3.63769

>  <PEOE_RPC+>
0.081123

>  <PEOE_RPC->
0.0984635

>  <PEOE_VSA+0>
109.967

>  <PEOE_VSA+1>
93.9002

>  <PEOE_VSA+2>
20.0987

>  <PEOE_VSA+3>
34.8779

>  <PEOE_VSA+4>
0

>  <PEOE_VSA+5>
47.3071

>  <PEOE_VSA+6>
0

>  <PEOE_VSA-0>
36.7647

>  <PEOE_VSA-1>
36.7647

>  <PEOE_VSA-2>
0

>  <PEOE_VSA-3>
9.42104

>  <PEOE_VSA-4>
17.5912

>  <PEOE_VSA-5>
58.143

>  <PEOE_VSA-6>
0.273782

>  <PEOE_VSA_FHYD>
0.734869

>  <PEOE_VSA_FNEG>
0.341766

>  <PEOE_VSA_FPNEG>
0.16342

>  <PEOE_VSA_FPOL>
0.265131

>  <PEOE_VSA_FPOS>
0.658234

>  <PEOE_VSA_FPPOS>
0.101712

>  <PEOE_VSA_HYD>
341.794

>  <PEOE_VSA_NEG>
158.958

>  <PEOE_VSA_PNEG>
76.008

>  <PEOE_VSA_POL>
123.315

>  <PEOE_VSA_POS>
306.151

>  <PEOE_VSA_PPOS>
47.3071

>  <PC+>
7.523

>  <PC->
-7.524

>  <Q_PC+>
7.523

>  <Q_PC->
-7.524

>  <Q_RPC+>
0.0950419

>  <Q_RPC->
0.0970229

>  <Q_VSA_FHYD>
0.442281

>  <Q_VSA_FNEG>
0.4027

>  <Q_VSA_FPNEG>
0.199853

>  <Q_VSA_FPOL>
0.557719

>  <Q_VSA_FPOS>
0.5973

>  <Q_VSA_FPPOS>
0.357865

>  <Q_VSA_HYD>
205.709

>  <Q_VSA_NEG>
187.3

>  <Q_VSA_PNEG>
92.9537

>  <Q_VSA_POL>
259.4

>  <Q_VSA_POS>
277.81

>  <Q_VSA_PPOS>
166.447

>  <RPC+>
0.0950419

>  <RPC->
0.0970229

>  <lip_acc>
11

>  <lip_don>
3

>  <lip_druglike>
0

>  <lip_violation>
2

>  <opr_brigid>
27

>  <opr_leadlike>
0

>  <opr_nring>
5

>  <opr_nrot>
7

>  <opr_violation>
3

>  <E>
95.6822

>  <E_ang>
17.1379

>  <E_ele>
16.5234

>  <E_nb>
71.3456

>  <E_oop>
0.0763247

>  <E_sol>
-30.355

>  <E_stb>
0.532362

>  <E_str>
6.34972

>  <E_strain>
0.00592531

>  <E_tor>
0.240245

>  <E_vdw>
54.8223

>  <E_rele>
0

>  <E_rnb>
-8.52651e-014

>  <E_rsol>
-8.52651e-014

>  <E_rvdw>
0

>  <Kier1>
28.5259

>  <Kier2>
12.6688

>  <Kier3>
6.04094

>  <KierA1>
19.1318

>  <KierA2>
8.39436

>  <KierA3>
3.96782

>  <KierFlex>
4.34052

>  <logS>
-4.1655

>  <MNDO_dipole>
5.25668

>  <MNDO_E>
-155035

>  <MNDO_Eele>
-1.23168e+006

>  <MNDO_HF>
-44.9506

>  <MNDO_HOMO>
-9.09823

>  <MNDO_IP>
9.09823

>  <MNDO_LUMO>
-1.01795

>  <apol>
70.1344

>  <bpol>
36.3456

>  <mr>
13.2426

>  <dipole>
0.817055

>  <dipoleX>
0.121648

>  <dipoleY>
-0.805975

>  <dipoleZ>
0.056432

>  <pmi>
17411.9

>  <pmiX>
11095.2

>  <pmiY>
5517.52

>  <pmiZ>
799.196

>  <rgyr>
5.88065

>  <a_acc>
7

>  <a_acid>
0

>  <a_base>
0

>  <a_don>
4

>  <a_hyd>
22

>  <vsa_acc>
59.9503

>  <vsa_acid>
0

>  <vsa_base>
0

>  <vsa_don>
11.3652

>  <vsa_hyd>
304.901

>  <vsa_other>
47.3071

>  <vsa_pol>
90.1575

>  <PM3_dipole>
4.68008

>  <PM3_E>
-139509

>  <PM3_Eele>
-1.22238e+006

>  <PM3_HF>
-61.4458

>  <PM3_HOMO>
-8.85596

>  <PM3_IP>
8.85596

>  <PM3_LUMO>
-1.14102

>  <SlogP>
1.619

>  <SlogP_VSA0>
18.0107

>  <SlogP_VSA1>
61.1611

>  <SlogP_VSA2>
66.4318

>  <SlogP_VSA3>
73.7583

>  <SlogP_VSA4>
80.7145

>  <SlogP_VSA5>
32.8972

>  <SlogP_VSA6>
0

>  <SlogP_VSA7>
150.518

>  <SlogP_VSA8>
0

>  <SlogP_VSA9>
14.9601

>  <SMR>
13.028

>  <SMR_VSA0>
95.4489

>  <SMR_VSA1>
54.6573

>  <SMR_VSA2>
60.5803

>  <SMR_VSA3>
9.1279

>  <SMR_VSA4>
10.2306

>  <SMR_VSA5>
140.288

>  <SMR_VSA6>
95.2223

>  <SMR_VSA7>
32.8972

>  <ASA>
777.166

>  <ASA+>
339.05

>  <ASA->
281.256

>  <ASA_H>
463.075

>  <ASA_P>
314.091

>  <CASA+>
2550.67

>  <CASA->
2116.17

>  <DASA>
57.7937

>  <DCASA>
434.501

>  <FASA+>
0.436264

>  <FASA->
0.361899

>  <FASA_H>
0.595851

>  <FASA_P>
0.404149

>  <FCASA+>
3.28201

>  <FCASA->
2.72293

>  <VSA>
486.828

>  <TPSA>
144.15

>  <density>
0.8063

>  <vdw_area>
465.109

>  <vdw_vol>
624.45

>  <vsurf_A>
3.36668

>  <vsurf_CP>
0.0566017

>  <vsurf_CW1>
2.67398

>  <vsurf_CW2>
2.23673

>  <vsurf_CW3>
1.64673

>  <vsurf_CW4>
0.838097

>  <vsurf_CW5>
0.42328

>  <vsurf_CW6>
0.190344

>  <vsurf_CW7>
0.064847

>  <vsurf_CW8>
0.0239732

>  <vsurf_D1>
1023.63

>  <vsurf_D2>
610.875

>  <vsurf_D3>
452.875

>  <vsurf_D4>
372.875

>  <vsurf_D5>
310

>  <vsurf_D6>
240.875

>  <vsurf_D7>
148

>  <vsurf_D8>
93.125

>  <vsurf_DD12>
0.707107

>  <vsurf_DD13>
0.866025

>  <vsurf_DD23>
0.5

>  <vsurf_DW12>
0.5

>  <vsurf_DW13>
0.5

>  <vsurf_DW23>
0.707107

>  <vsurf_EDmin1>
-2.86268

>  <vsurf_EDmin2>
-2.78041

>  <vsurf_EDmin3>
-2.70076

>  <vsurf_EWmin1>
-7.79007

>  <vsurf_EWmin2>
-7.70937

>  <vsurf_EWmin3>
-7.51204

>  <vsurf_G>
1.4358

>  <vsurf_HB1>
429.125

>  <vsurf_HB2>
519.375

>  <vsurf_HB3>
479.375

>  <vsurf_HB4>
213.5

>  <vsurf_HB5>
88.25

>  <vsurf_HB6>
38.125

>  <vsurf_HB7>
13.5

>  <vsurf_HB8>
4.75

>  <vsurf_HL1>
0.230748

>  <vsurf_HL2>
0.111968

>  <vsurf_ID1>
0.930568

>  <vsurf_ID2>
0.803731

>  <vsurf_ID3>
0.843698

>  <vsurf_ID4>
1.14278

>  <vsurf_ID5>
1.56256

>  <vsurf_ID6>
1.9885

>  <vsurf_ID7>
1.0343

>  <vsurf_ID8>
0.893613

>  <vsurf_IW1>
0.592449

>  <vsurf_IW2>
1.14504

>  <vsurf_IW3>
1.71574

>  <vsurf_IW4>
2.17512

>  <vsurf_IW5>
3.04191

>  <vsurf_IW6>
4.60949

>  <vsurf_IW7>
6.91727

>  <vsurf_IW8>
7.37012

>  <vsurf_R>
1.45304

>  <vsurf_S>
706.792

>  <vsurf_V>
1027

>  <vsurf_W1>
1814.25

>  <vsurf_W2>
1168.63

>  <vsurf_W3>
663.75

>  <vsurf_W4>
255.25

>  <vsurf_W5>
104.5

>  <vsurf_W6>
41.75

>  <vsurf_W7>
13.5

>  <vsurf_W8>
4.75

>  <vsurf_Wp1>
1385.13

>  <vsurf_Wp2>
649.25

>  <vsurf_Wp3>
184.375

>  <vsurf_Wp4>
41.75

>  <vsurf_Wp5>
16.25

>  <vsurf_Wp6>
3.625

>  <vsurf_Wp7>
0

>  <vsurf_Wp8>
0

>  <dens>
1.13431

>  <glob>
0.040904

>  <std_dim1>
5.90793

>  <std_dim2>
1.84589

>  <std_dim3>
1.19486

>  <vol>
443.875

>  <logP(o/w)>
1.16506

$$$$
D16.cdx
  MOE2008           3D

 75 80  0  0  0  0  0  0  0  0999 V2000
   -3.7520   -7.0350   -0.6220 C   0  0  0  0  0  0  0  0  0  0  0  0
   -4.4530   -6.3670   -1.1140 H   0  0  0  0  0  0  0  0  0  0  0  0
   -4.0790   -8.3470   -0.6690 N   0  0  0  0  0  0  0  0  0  0  0  0
   -3.2540   -9.2620   -0.0790 C   0  0  0  0  0  0  0  0  0  0  0  0
   -2.1000   -8.7830    0.5590 C   0  0  0  0  0  0  0  0  0  0  0  0
   -1.7510   -7.4330    0.6120 C   0  0  0  0  0  0  0  0  0  0  0  0
   -2.6200   -6.5230   -0.0100 C   0  0  0  0  0  0  0  0  0  0  0  0
   -1.1210   -9.4840    1.2250 N   0  0  0  0  0  0  0  0  0  0  0  0
   -1.1500  -10.4930    1.3340 H   0  0  0  0  0  0  0  0  0  0  0  0
   -0.1600   -8.6330    1.6870 C   0  0  0  0  0  0  0  0  0  0  0  0
    0.6890   -9.0230    2.2360 H   0  0  0  0  0  0  0  0  0  0  0  0
   -0.5110   -7.3420    1.3300 C   0  0  0  0  0  0  0  0  0  0  0  0
    0.2790   -6.1550    1.6360 C   0  0  0  0  0  0  0  0  0  0  0  0
    1.6310   -6.3160    2.3070 C   0  0  0  0  0  0  0  0  0  0  0  0
    2.7470   -6.2760    1.4750 N   0  0  0  0  0  0  0  0  0  0  0  0
    4.0760   -6.4350    2.0640 C   0  0  0  0  0  0  0  0  0  0  0  0
    4.0700   -6.0940    3.1040 H   0  0  0  0  0  0  0  0  0  0  0  0
    4.2900   -7.5100    2.0700 H   0  0  0  0  0  0  0  0  0  0  0  0
    5.1540   -5.6900    1.2700 C   0  0  0  0  0  0  0  0  0  0  0  0
    6.1380   -5.8760    1.7120 H   0  0  0  0  0  0  0  0  0  0  0  0
    4.9580   -4.6120    1.3090 H   0  0  0  0  0  0  0  0  0  0  0  0
    5.1650   -6.0700   -0.1520 N   0  0  0  0  0  0  0  0  0  0  0  0
    3.9190   -6.6070   -0.7020 C   0  0  0  0  0  0  0  0  0  0  0  0
    3.8550   -6.3830   -1.7730 H   0  0  0  0  0  0  0  0  0  0  0  0
    3.9750   -7.6980   -0.5970 H   0  0  0  0  0  0  0  0  0  0  0  0
    2.6800   -6.0750    0.0210 C   0  0  0  0  0  0  0  0  0  0  0  0
    1.7830   -6.5510   -0.3840 H   0  0  0  0  0  0  0  0  0  0  0  0
    2.5850   -4.9940   -0.1390 H   0  0  0  0  0  0  0  0  0  0  0  0
    6.2740   -5.9850   -0.9930 C   0  0  0  0  0  0  0  0  0  0  0  0
    7.4900   -5.2980   -0.5010 C   0  0  0  0  0  0  0  0  0  0  0  0
   -0.0700   -5.0140    1.3530 O   0  0  0  0  0  0  0  0  0  0  0  0
    1.6480   -6.4970    3.5190 O   0  0  0  0  0  0  0  0  0  0  0  0
    6.3120   -6.4570   -2.1260 O   0  0  0  0  0  0  0  0  0  0  0  0
   -2.3990   -5.2040   -0.0370 F   0  0  0  0  0  0  0  0  0  0  0  0
    8.6990   -6.0010   -0.4810 C   0  0  0  0  0  0  0  0  0  0  0  0
    8.7380   -7.0380   -0.8050 H   0  0  0  0  0  0  0  0  0  0  0  0
    9.8580   -5.3620   -0.0430 C   0  0  0  0  0  0  0  0  0  0  0  0
   10.8010   -5.9020   -0.0190 H   0  0  0  0  0  0  0  0  0  0  0  0
    9.8100   -4.0260    0.3600 C   0  0  0  0  0  0  0  0  0  0  0  0
   10.7170   -3.5300    0.6990 H   0  0  0  0  0  0  0  0  0  0  0  0
    8.6060   -3.3200    0.3160 C   0  0  0  0  0  0  0  0  0  0  0  0
    8.5770   -2.2760    0.6170 H   0  0  0  0  0  0  0  0  0  0  0  0
    7.4430   -3.9520   -0.1230 C   0  0  0  0  0  0  0  0  0  0  0  0
    6.5130   -3.3920   -0.1790 H   0  0  0  0  0  0  0  0  0  0  0  0
   -3.5820  -10.6870   -0.1190 C   0  0  0  0  0  0  0  0  0  0  0  0
   -4.6980  -11.2870   -0.7600 C   0  0  0  0  0  0  0  0  0  0  0  0
   -5.4430  -10.7530   -1.3250 H   0  0  0  0  0  0  0  0  0  0  0  0
   -4.6160  -12.6390   -0.5070 C   0  0  0  0  0  0  0  0  0  0  0  0
   -3.4560  -12.7690    0.2140 N   0  0  0  0  0  0  0  0  0  0  0  0
   -3.0570  -13.6360    0.5580 H   0  0  0  0  0  0  0  0  0  0  0  0
   -2.8170  -11.6200    0.4740 N   0  0  0  0  0  0  0  0  0  0  0  0
   -5.3980  -13.8060   -0.8300 C   0  0  0  0  0  0  0  0  0  0  0  0
   -6.6650  -13.7240   -1.3510 N   0  0  0  0  0  0  0  0  0  0  0  0
   -7.0610  -14.6410   -1.5260 H   0  0  0  0  0  0  0  0  0  0  0  0
   -4.9500  -14.9340   -0.6150 O   0  0  0  0  0  0  0  0  0  0  0  0
   -7.5100  -12.5830   -1.6780 C   0  0  0  0  0  0  0  0  0  0  0  0
   -6.9350  -11.8840   -2.2860 H   0  0  0  0  0  0  0  0  0  0  0  0
   -8.3090  -12.9740   -2.3210 H   0  0  0  0  0  0  0  0  0  0  0  0
   -8.1360  -11.9380   -0.4300 C   0  0  0  0  0  0  0  0  0  0  0  0
   -7.3630  -11.5630    0.2510 H   0  0  0  0  0  0  0  0  0  0  0  0
   -8.6550  -12.7390    0.1140 H   0  0  0  0  0  0  0  0  0  0  0  0
   -9.1060  -10.8770   -0.7520 N   0  0  0  0  0  0  0  0  0  0  0  0
   -8.4800   -9.6370   -1.2570 C   0  0  0  0  0  0  0  0  0  0  0  0
   -7.5210   -9.8220   -1.7470 H   0  0  0  0  0  0  0  0  0  0  0  0
   -9.1440   -9.2430   -2.0380 H   0  0  0  0  0  0  0  0  0  0  0  0
   -8.3150   -8.5600   -0.1790 C   0  0  0  0  0  0  0  0  0  0  0  0
   -7.8500   -7.6660   -0.6080 H   0  0  0  0  0  0  0  0  0  0  0  0
   -7.6590   -8.9100    0.6270 H   0  0  0  0  0  0  0  0  0  0  0  0
   -9.5620   -8.1560    0.3990 O   0  0  0  0  0  0  0  0  0  0  0  0
  -10.5620   -9.1820    0.3610 C   0  0  0  0  0  0  0  0  0  0  0  0
  -11.2300   -9.0190    1.2140 H   0  0  0  0  0  0  0  0  0  0  0  0
  -11.1600   -9.0510   -0.5480 H   0  0  0  0  0  0  0  0  0  0  0  0
   -9.9550  -10.5880    0.4270 C   0  0  0  0  0  0  0  0  0  0  0  0
  -10.7550  -11.3340    0.4810 H   0  0  0  0  0  0  0  0  0  0  0  0
   -9.3640  -10.6590    1.3500 H   0  0  0  0  0  0  0  0  0  0  0  0
  1  2  1  0  0  0  0
  1  3  1  0  0  0  0
  1  7  2  0  0  0  0
  3  4  2  0  0  0  0
  4  5  1  0  0  0  0
  4 45  1  0  0  0  0
  5  6  2  0  0  0  0
  5  8  1  0  0  0  0
  6  7  1  0  0  0  0
  6 12  1  0  0  0  0
  7 34  1  0  0  0  0
  8  9  1  0  0  0  0
  8 10  1  0  0  0  0
 10 11  1  0  0  0  0
 10 12  2  0  0  0  0
 12 13  1  0  0  0  0
 13 14  1  0  0  0  0
 13 31  2  0  0  0  0
 14 15  1  0  0  0  0
 14 32  2  0  0  0  0
 15 16  1  0  0  0  0
 15 26  1  0  0  0  0
 16 17  1  0  0  0  0
 16 18  1  0  0  0  0
 16 19  1  0  0  0  0
 19 20  1  0  0  0  0
 19 21  1  0  0  0  0
 19 22  1  0  0  0  0
 22 23  1  0  0  0  0
 22 29  1  0  0  0  0
 23 24  1  0  0  0  0
 23 25  1  0  0  0  0
 23 26  1  0  0  0  0
 26 27  1  0  0  0  0
 26 28  1  0  0  0  0
 29 30  1  0  0  0  0
 29 33  2  0  0  0  0
 30 35  1  0  0  0  0
 30 43  2  0  0  0  0
 35 36  1  0  0  0  0
 35 37  2  0  0  0  0
 37 38  1  0  0  0  0
 37 39  1  0  0  0  0
 39 40  1  0  0  0  0
 39 41  2  0  0  0  0
 41 42  1  0  0  0  0
 41 43  1  0  0  0  0
 43 44  1  0  0  0  0
 45 46  1  0  0  0  0
 45 51  2  0  0  0  0
 46 47  1  0  0  0  0
 46 48  2  0  0  0  0
 48 49  1  0  0  0  0
 48 52  1  0  0  0  0
 49 50  1  0  0  0  0
 49 51  1  0  0  0  0
 52 53  1  0  0  0  0
 52 55  2  0  0  0  0
 53 54  1  0  0  0  0
 53 56  1  0  0  0  0
 56 57  1  0  0  0  0
 56 58  1  0  0  0  0
 56 59  1  0  0  0  0
 59 60  1  0  0  0  0
 59 61  1  0  0  0  0
 59 62  1  0  0  0  0
 62 63  1  0  0  0  0
 62 73  1  0  0  0  0
 63 64  1  0  0  0  0
 63 65  1  0  0  0  0
 63 66  1  0  0  0  0
 66 67  1  0  0  0  0
 66 68  1  0  0  0  0
 66 69  1  0  0  0  0
 69 70  1  0  0  0  0
 70 71  1  0  0  0  0
 70 72  1  0  0  0  0
 70 73  1  0  0  0  0
 73 74  1  0  0  0  0
 73 75  1  0  0  0  0
M  END
>  <Activity>
9.8239

>  <AM1_dipole>
0

>  <diameter>
25

>  <petitjean>
0.48

>  <petitjeanSC>
0.923077

>  <radius>
13

>  <VDistEq>
4.32934

>  <VDistMa>
10.5889

>  <weinerPath>
8300

>  <weinerPol>
73

>  <BCUT_PEOE_0>
-2.72464

>  <BCUT_PEOE_1>
-0.593081

>  <BCUT_PEOE_2>
0.620448

>  <BCUT_PEOE_3>
2.65031

>  <BCUT_SLOGP_0>
-2.86001

>  <BCUT_SLOGP_1>
-0.546071

>  <BCUT_SLOGP_2>
0.70724

>  <BCUT_SLOGP_3>
2.52102

>  <BCUT_SMR_0>
-2.45451

>  <BCUT_SMR_1>
-0.405858

>  <BCUT_SMR_2>
0.776733

>  <BCUT_SMR_3>
2.92024

>  <GCUT_PEOE_0>
-0.855056

>  <GCUT_PEOE_1>
-0.415377

>  <GCUT_PEOE_2>
0.0801653

>  <GCUT_PEOE_3>
2.77604

>  <GCUT_SLOGP_0>
-1.16152

>  <GCUT_SLOGP_1>
-0.350671

>  <GCUT_SLOGP_2>
0.1652

>  <GCUT_SLOGP_3>
2.7549

>  <GCUT_SMR_0>
-0.51536

>  <GCUT_SMR_1>
-0.218527

>  <GCUT_SMR_2>
0.199362

>  <GCUT_SMR_3>
3.04395

>  <a_aro>
20

>  <a_count>
75

>  <a_IC>
130.765

>  <a_ICM>
1.74353

>  <a_nH>
31

>  <b_1rotN>
10

>  <b_1rotR>
0.204082

>  <b_ar>
21

>  <b_count>
80

>  <b_double>
4

>  <b_rotN>
11

>  <b_rotR>
0.22449

>  <b_single>
55

>  <b_triple>
0

>  <chi0v>
23.8451

>  <chi0v_C>
17.6899

>  <chi1v>
14.3803

>  <chi1v_C>
7.81538

>  <chiral>
0

>  <chiral_u>
0

>  <nmol>
1

>  <reactive>
0

>  <rings>
6

>  <Weight>
602.627

>  <a_heavy>
44

>  <a_nB>
0

>  <a_nBr>
0

>  <a_nC>
30

>  <a_nCl>
0

>  <a_nF>
1

>  <a_nI>
0

>  <a_nN>
8

>  <a_nO>
5

>  <a_nP>
0

>  <a_nS>
0

>  <b_heavy>
49

>  <chi0>
30.6308

>  <chi0_C>
19.6561

>  <chi1>
21.4019

>  <chi1_C>
9.94949

>  <FCharge>
0

>  <VAdjEq>
0.289024

>  <VAdjMa>
6.61471

>  <zagreb>
236

>  <balabanJ>
0.976757

>  <PEOE_PC+>
4.30698

>  <PEOE_PC->
-4.30698

>  <PEOE_RPC+>
0.0685168

>  <PEOE_RPC->
0.0875887

>  <PEOE_VSA+0>
160.825

>  <PEOE_VSA+1>
140.864

>  <PEOE_VSA+2>
20.0987

>  <PEOE_VSA+3>
34.8779

>  <PEOE_VSA+4>
0

>  <PEOE_VSA+5>
47.3071

>  <PEOE_VSA+6>
0

>  <PEOE_VSA-0>
36.7647

>  <PEOE_VSA-1>
36.7647

>  <PEOE_VSA-2>
0

>  <PEOE_VSA-3>
9.42104

>  <PEOE_VSA-4>
17.5912

>  <PEOE_VSA-5>
58.143

>  <PEOE_VSA-6>
2.77754

>  <PEOE_VSA_FHYD>
0.777483

>  <PEOE_VSA_FNEG>
0.285554

>  <PEOE_VSA_FPNEG>
0.138852

>  <PEOE_VSA_FPOL>
0.222517

>  <PEOE_VSA_FPOS>
0.714446

>  <PEOE_VSA_FPPOS>
0.083665

>  <PEOE_VSA_HYD>
439.616

>  <PEOE_VSA_NEG>
161.462

>  <PEOE_VSA_PNEG>
78.5118

>  <PEOE_VSA_POL>
125.819

>  <PEOE_VSA_POS>
403.973

>  <PEOE_VSA_PPOS>
47.3071

>  <PC+>
8.893

>  <PC->
-8.894

>  <Q_PC+>
8.893

>  <Q_PC->
-8.894

>  <Q_RPC+>
0.0804003

>  <Q_RPC->
0.0910726

>  <Q_VSA_FHYD>
0.431699

>  <Q_VSA_FNEG>
0.335677

>  <Q_VSA_FPNEG>
0.168821

>  <Q_VSA_FPOL>
0.568301

>  <Q_VSA_FPOS>
0.664323

>  <Q_VSA_FPPOS>
0.39948

>  <Q_VSA_HYD>
244.098

>  <Q_VSA_NEG>
189.804

>  <Q_VSA_PNEG>
95.4574

>  <Q_VSA_POL>
321.337

>  <Q_VSA_POS>
375.631

>  <Q_VSA_PPOS>
225.88

>  <RPC+>
0.0804003

>  <RPC->
0.0910726

>  <lip_acc>
13

>  <lip_don>
3

>  <lip_druglike>
0

>  <lip_violation>
2

>  <opr_brigid>
33

>  <opr_leadlike>
0

>  <opr_nring>
6

>  <opr_nrot>
12

>  <opr_violation>
4

>  <E>
138.496

>  <E_ang>
22.9979

>  <E_ele>
39.1025

>  <E_nb>
108.198

>  <E_oop>
0.0973775

>  <E_sol>
-23.5939

>  <E_stb>
1.58441

>  <E_str>
8.01671

>  <E_strain>
0.00767191

>  <E_tor>
-2.39817

>  <E_vdw>
69.0957

>  <E_rele>
0

>  <E_rnb>
-7.10543e-014

>  <E_rsol>
-7.10543e-014

>  <E_rvdw>
0

>  <Kier1>
33.8842

>  <Kier2>
15.9319

>  <Kier3>
8.01374

>  <KierA1>
24.3309

>  <KierA2>
11.3457

>  <KierA3>
5.6741

>  <KierFlex>
6.27391

>  <logS>
-4.35487

>  <MNDO_dipole>
3.9366

>  <MNDO_E>
-184927

>  <MNDO_Eele>
-1.62683e+006

>  <MNDO_HF>
-32.778

>  <MNDO_HOMO>
-9.0693

>  <MNDO_IP>
9.0693

>  <MNDO_LUMO>
-1.0875

>  <apol>
86.8376

>  <bpol>
50.0804

>  <mr>
15.8905

>  <dipole>
0.733123

>  <dipoleX>
0.139906

>  <dipoleY>
-0.702924

>  <dipoleZ>
0.154251

>  <pmi>
26542.9

>  <pmiX>
20463

>  <pmiY>
5291.33

>  <pmiZ>
788.52

>  <rgyr>
6.63666

>  <a_acc>
9

>  <a_acid>
0

>  <a_base>
0

>  <a_don>
4

>  <a_hyd>
27

>  <vsa_acc>
62.454

>  <vsa_acid>
0

>  <vsa_base>
0

>  <vsa_don>
11.3652

>  <vsa_hyd>
396.316

>  <vsa_other>
47.3071

>  <vsa_pol>
92.6612

>  <PM3_dipole>
3.85705

>  <PM3_E>
-166884

>  <PM3_Eele>
-1.62642e+006

>  <PM3_HF>
-95.5046

>  <PM3_HOMO>
-8.91306

>  <PM3_IP>
8.91306

>  <PM3_LUMO>
-1.20858

>  <SlogP>
1.3214

>  <SlogP_VSA0>
18.0107

>  <SlogP_VSA1>
64.2854

>  <SlogP_VSA2>
77.4317

>  <SlogP_VSA3>
189.369

>  <SlogP_VSA4>
80.7145

>  <SlogP_VSA5>
0

>  <SlogP_VSA6>
0

>  <SlogP_VSA7>
150.518

>  <SlogP_VSA8>
0

>  <SlogP_VSA9>
14.9601

>  <SMR>
15.6482

>  <SMR_VSA0>
106.449

>  <SMR_VSA1>
57.7816

>  <SMR_VSA2>
60.5803

>  <SMR_VSA3>
9.1279

>  <SMR_VSA4>
10.2306

>  <SMR_VSA5>
140.288

>  <SMR_VSA6>
210.833

>  <SMR_VSA7>
0

>  <ASA>
888.797

>  <ASA+>
340.286

>  <ASA->
283.573

>  <ASA_H>
553.047

>  <ASA_P>
335.75

>  <CASA+>
3026.16

>  <CASA->
2522.1

>  <DASA>
56.7126

>  <DCASA>
504.061

>  <FASA+>
0.382861

>  <FASA->
0.319053

>  <FASA_H>
0.622243

>  <FASA_P>
0.377757

>  <FCASA+>
3.40478

>  <FCASA->
2.83766

>  <VSA>
593.548

>  <TPSA>
156.62

>  <density>
0.791614

>  <vdw_area>
565.435

>  <vdw_vol>
761.264

>  <vsurf_A>
3.88304

>  <vsurf_CP>
0.0503862

>  <vsurf_CW1>
2.64554

>  <vsurf_CW2>
2.28829

>  <vsurf_CW3>
1.7327

>  <vsurf_CW4>
0.861977

>  <vsurf_CW5>
0.418518

>  <vsurf_CW6>
0.180074

>  <vsurf_CW7>
0.062788

>  <vsurf_CW8>
0.0203446

>  <vsurf_D1>
1100.13

>  <vsurf_D2>
661.75

>  <vsurf_D3>
491.375

>  <vsurf_D4>
403.375

>  <vsurf_D5>
334.625

>  <vsurf_D6>
263.625

>  <vsurf_D7>
164

>  <vsurf_D8>
103.5

>  <vsurf_DD12>
0.5

>  <vsurf_DD13>
0.707107

>  <vsurf_DD23>
1.11803

>  <vsurf_DW12>
0.5

>  <vsurf_DW13>
4.03113

>  <vsurf_DW23>
3.937

>  <vsurf_EDmin1>
-2.94995

>  <vsurf_EDmin2>
-2.88902

>  <vsurf_EDmin3>
-2.84894

>  <vsurf_EWmin1>
-7.80712

>  <vsurf_EWmin2>
-7.3204

>  <vsurf_EWmin3>
-7.13846

>  <vsurf_G>
1.4761

>  <vsurf_HB1>
560.25

>  <vsurf_HB2>
714.375

>  <vsurf_HB3>
612.75

>  <vsurf_HB4>
258.25

>  <vsurf_HB5>
103.25

>  <vsurf_HB6>
43

>  <vsurf_HB7>
15.125

>  <vsurf_HB8>
4.375

>  <vsurf_HL1>
0.240651

>  <vsurf_HL2>
0.113728

>  <vsurf_ID1>
1.59333

>  <vsurf_ID2>
1.42749

>  <vsurf_ID3>
1.38483

>  <vsurf_ID4>
1.76183

>  <vsurf_ID5>
2.25183

>  <vsurf_ID6>
2.51235

>  <vsurf_ID7>
1.89013

>  <vsurf_ID8>
1.15903

>  <vsurf_IW1>
0.309703

>  <vsurf_IW2>
1.09542

>  <vsurf_IW3>
1.60186

>  <vsurf_IW4>
2.00311

>  <vsurf_IW5>
2.80495

>  <vsurf_IW6>
4.40864

>  <vsurf_IW7>
6.24624

>  <vsurf_IW8>
7.06205

>  <vsurf_R>
1.49636

>  <vsurf_S>
814.475

>  <vsurf_V>
1218.75

>  <vsurf_W1>
2099

>  <vsurf_W2>
1406.75

>  <vsurf_W3>
810.625

>  <vsurf_W4>
300.125

>  <vsurf_W5>
118.25

>  <vsurf_W6>
45.875

>  <vsurf_W7>
15.125

>  <vsurf_W8>
4.375

>  <vsurf_Wp1>
1538.75

>  <vsurf_Wp2>
692.375

>  <vsurf_Wp3>
197.875

>  <vsurf_Wp4>
41.875

>  <vsurf_Wp5>
15

>  <vsurf_Wp6>
2.875

>  <vsurf_Wp7>
0

>  <vsurf_Wp8>
0

>  <dens>
1.10777

>  <glob>
0.0285092

>  <std_dim1>
6.81127

>  <std_dim2>
1.89181

>  <std_dim3>
1.15006

>  <vol>
544

>  <logP(o/w)>
0.60806

$$$$
D16.cdx
  MOE2008           3D

 62 66  0  0  0  0  0  0  0  0999 V2000
   -4.0910  -12.9520   -0.8100 C   0  0  0  0  0  0  0  0  0  0  0  0
   -4.8310  -12.2730   -1.2230 H   0  0  0  0  0  0  0  0  0  0  0  0
   -4.3690  -14.2670   -0.9590 N   0  0  0  0  0  0  0  0  0  0  0  0
   -3.4960  -15.1960   -0.4730 C   0  0  0  0  0  0  0  0  0  0  0  0
   -2.3390  -14.7280    0.1690 C   0  0  0  0  0  0  0  0  0  0  0  0
   -2.0400  -13.3740    0.3300 C   0  0  0  0  0  0  0  0  0  0  0  0
   -2.9610  -12.4490   -0.1860 C   0  0  0  0  0  0  0  0  0  0  0  0
   -1.3110  -15.4430    0.7420 N   0  0  0  0  0  0  0  0  0  0  0  0
   -1.2940  -16.4580    0.7580 H   0  0  0  0  0  0  0  0  0  0  0  0
   -0.3720  -14.5960    1.2530 C   0  0  0  0  0  0  0  0  0  0  0  0
    0.5070  -14.9970    1.7420 H   0  0  0  0  0  0  0  0  0  0  0  0
   -0.7830  -13.2950    1.0200 C   0  0  0  0  0  0  0  0  0  0  0  0
   -0.0290  -12.1080    1.4060 C   0  0  0  0  0  0  0  0  0  0  0  0
    1.3420  -12.2740    2.0360 C   0  0  0  0  0  0  0  0  0  0  0  0
    2.4380  -12.1230    1.1900 N   0  0  0  0  0  0  0  0  0  0  0  0
    3.7850  -12.2760    1.7380 C   0  0  0  0  0  0  0  0  0  0  0  0
    3.7870  -12.0300    2.8050 H   0  0  0  0  0  0  0  0  0  0  0  0
    4.0420  -13.3380    1.6450 H   0  0  0  0  0  0  0  0  0  0  0  0
    4.8130  -11.4180    0.9940 C   0  0  0  0  0  0  0  0  0  0  0  0
    5.8130  -11.6000    1.4010 H   0  0  0  0  0  0  0  0  0  0  0  0
    4.5730  -10.3580    1.1330 H   0  0  0  0  0  0  0  0  0  0  0  0
    4.8090  -11.6710   -0.4550 N   0  0  0  0  0  0  0  0  0  0  0  0
    3.5770  -12.2180   -1.0280 C   0  0  0  0  0  0  0  0  0  0  0  0
    3.4810  -11.9080   -2.0740 H   0  0  0  0  0  0  0  0  0  0  0  0
    3.6840  -13.3090   -1.0160 H   0  0  0  0  0  0  0  0  0  0  0  0
    2.3310  -11.8050   -0.2410 C   0  0  0  0  0  0  0  0  0  0  0  0
    1.4480  -12.2880   -0.6680 H   0  0  0  0  0  0  0  0  0  0  0  0
    2.1850  -10.7200   -0.3090 H   0  0  0  0  0  0  0  0  0  0  0  0
    5.8940  -11.4600   -1.3050 C   0  0  0  0  0  0  0  0  0  0  0  0
    7.0870  -10.7600   -0.7770 C   0  0  0  0  0  0  0  0  0  0  0  0
   -0.4200  -10.9600    1.2230 O   0  0  0  0  0  0  0  0  0  0  0  0
    1.3920  -12.5540    3.2280 O   0  0  0  0  0  0  0  0  0  0  0  0
    5.9290  -11.8280   -2.4760 O   0  0  0  0  0  0  0  0  0  0  0  0
   -2.7900  -11.1250   -0.1040 F   0  0  0  0  0  0  0  0  0  0  0  0
    8.3270  -11.4020   -0.8390 C   0  0  0  0  0  0  0  0  0  0  0  0
    8.4080  -12.4050   -1.2520 H   0  0  0  0  0  0  0  0  0  0  0  0
    9.4650  -10.7480   -0.3670 C   0  0  0  0  0  0  0  0  0  0  0  0
   10.4330  -11.2430   -0.4070 H   0  0  0  0  0  0  0  0  0  0  0  0
    9.3640   -9.4550    0.1510 C   0  0  0  0  0  0  0  0  0  0  0  0
   10.2530   -8.9470    0.5160 H   0  0  0  0  0  0  0  0  0  0  0  0
    8.1270   -8.8080    0.1890 C   0  0  0  0  0  0  0  0  0  0  0  0
    8.0560   -7.7960    0.5800 H   0  0  0  0  0  0  0  0  0  0  0  0
    6.9850   -9.4550   -0.2830 C   0  0  0  0  0  0  0  0  0  0  0  0
    6.0300   -8.9380   -0.2730 H   0  0  0  0  0  0  0  0  0  0  0  0
   -3.7740  -16.6240   -0.6250 C   0  0  0  0  0  0  0  0  0  0  0  0
   -4.9090  -17.2120   -1.2450 C   0  0  0  0  0  0  0  0  0  0  0  0
   -5.7230  -16.6830   -1.7180 H   0  0  0  0  0  0  0  0  0  0  0  0
   -4.7430  -18.5780   -1.1330 C   0  0  0  0  0  0  0  0  0  0  0  0
   -3.5240  -18.7220   -0.5250 N   0  0  0  0  0  0  0  0  0  0  0  0
   -3.0510  -19.5960   -0.3220 H   0  0  0  0  0  0  0  0  0  0  0  0
   -2.9300  -17.5710   -0.1770 N   0  0  0  0  0  0  0  0  0  0  0  0
   -5.5010  -19.7280   -1.5740 C   0  0  0  0  0  0  0  0  0  0  0  0
   -6.8860  -19.6280   -1.7440 N   0  0  0  0  0  0  0  0  0  0  0  0
   -4.9070  -20.7870   -1.7860 O   0  0  0  0  0  0  0  0  0  0  0  0
   -7.7210  -18.5470   -1.2380 C   0  0  0  0  0  0  0  0  0  0  0  0
   -8.6850  -18.9550   -0.9180 H   0  0  0  0  0  0  0  0  0  0  0  0
   -7.8860  -17.8260   -2.0430 H   0  0  0  0  0  0  0  0  0  0  0  0
   -7.2650  -18.0570   -0.3760 H   0  0  0  0  0  0  0  0  0  0  0  0
   -7.5830  -20.6850   -2.4600 C   0  0  0  0  0  0  0  0  0  0  0  0
   -8.1980  -20.2340   -3.2450 H   0  0  0  0  0  0  0  0  0  0  0  0
   -8.2260  -21.2210   -1.7550 H   0  0  0  0  0  0  0  0  0  0  0  0
   -6.8930  -21.3960   -2.9220 H   0  0  0  0  0  0  0  0  0  0  0  0
  1  2  1  0  0  0  0
  1  3  1  0  0  0  0
  1  7  2  0  0  0  0
  3  4  2  0  0  0  0
  4  5  1  0  0  0  0
  4 45  1  0  0  0  0
  5  6  2  0  0  0  0
  5  8  1  0  0  0  0
  6  7  1  0  0  0  0
  6 12  1  0  0  0  0
  7 34  1  0  0  0  0
  8  9  1  0  0  0  0
  8 10  1  0  0  0  0
 10 11  1  0  0  0  0
 10 12  2  0  0  0  0
 12 13  1  0  0  0  0
 13 14  1  0  0  0  0
 13 31  2  0  0  0  0
 14 15  1  0  0  0  0
 14 32  2  0  0  0  0
 15 16  1  0  0  0  0
 15 26  1  0  0  0  0
 16 17  1  0  0  0  0
 16 18  1  0  0  0  0
 16 19  1  0  0  0  0
 19 20  1  0  0  0  0
 19 21  1  0  0  0  0
 19 22  1  0  0  0  0
 22 23  1  0  0  0  0
 22 29  1  0  0  0  0
 23 24  1  0  0  0  0
 23 25  1  0  0  0  0
 23 26  1  0  0  0  0
 26 27  1  0  0  0  0
 26 28  1  0  0  0  0
 29 30  1  0  0  0  0
 29 33  2  0  0  0  0
 30 35  1  0  0  0  0
 30 43  2  0  0  0  0
 35 36  1  0  0  0  0
 35 37  2  0  0  0  0
 37 38  1  0  0  0  0
 37 39  1  0  0  0  0
 39 40  1  0  0  0  0
 39 41  2  0  0  0  0
 41 42  1  0  0  0  0
 41 43  1  0  0  0  0
 43 44  1  0  0  0  0
 45 46  1  0  0  0  0
 45 51  2  0  0  0  0
 46 47  1  0  0  0  0
 46 48  2  0  0  0  0
 48 49  1  0  0  0  0
 48 52  1  0  0  0  0
 49 50  1  0  0  0  0
 49 51  1  0  0  0  0
 52 53  1  0  0  0  0
 52 54  2  0  0  0  0
 53 55  1  0  0  0  0
 53 59  1  0  0  0  0
 55 56  1  0  0  0  0
 55 57  1  0  0  0  0
 55 58  1  0  0  0  0
 59 60  1  0  0  0  0
 59 61  1  0  0  0  0
 59 62  1  0  0  0  0
M  END
>  <Activity>
9.8239

>  <AM1_dipole>
3.35082

>  <AM1_E>
-158428

>  <AM1_Eele>
-1.2912e+006

>  <AM1_HF>
12.2282

>  <AM1_HOMO>
-8.84248

>  <AM1_IP>
8.84248

>  <AM1_LUMO>
-1.02965

>  <diameter>
20

>  <petitjean>
0.5

>  <petitjeanSC>
1

>  <radius>
10

>  <VDistEq>
4.04628

>  <VDistMa>
10.1774

>  <weinerPath>
5184

>  <weinerPol>
66

>  <BCUT_PEOE_0>
-2.71188

>  <BCUT_PEOE_1>
-0.593663

>  <BCUT_PEOE_2>
0.616958

>  <BCUT_PEOE_3>
2.65031

>  <BCUT_SLOGP_0>
-2.86001

>  <BCUT_SLOGP_1>
-0.496844

>  <BCUT_SLOGP_2>
0.739643

>  <BCUT_SLOGP_3>
2.50336

>  <BCUT_SMR_0>
-2.43203

>  <BCUT_SMR_1>
-0.407228

>  <BCUT_SMR_2>
0.804881

>  <BCUT_SMR_3>
2.92024

>  <GCUT_PEOE_0>
-0.855415

>  <GCUT_PEOE_1>
-0.407653

>  <GCUT_PEOE_2>
0.0729115

>  <GCUT_PEOE_3>
2.73163

>  <GCUT_SLOGP_0>
-0.976504

>  <GCUT_SLOGP_1>
-0.342797

>  <GCUT_SLOGP_2>
0.155533

>  <GCUT_SLOGP_3>
2.71816

>  <GCUT_SMR_0>
-0.50892

>  <GCUT_SMR_1>
-0.204224

>  <GCUT_SMR_2>
0.197149

>  <GCUT_SMR_3>
3.00392

>  <a_aro>
20

>  <a_count>
62

>  <a_IC>
109.258

>  <a_ICM>
1.76223

>  <a_nH>
24

>  <b_1rotN>
8

>  <b_1rotR>
0.190476

>  <b_ar>
21

>  <b_count>
66

>  <b_double>
4

>  <b_rotN>
8

>  <b_rotR>
0.190476

>  <b_single>
41

>  <b_triple>
0

>  <chi0v>
20.6943

>  <chi0v_C>
15.4472

>  <chi1v>
11.8687

>  <chi1v_C>
6.31538

>  <chiral>
0

>  <chiral_u>
0

>  <nmol>
1

>  <reactive>
0

>  <rings>
5

>  <Weight>
517.521

>  <a_heavy>
38

>  <a_nB>
0

>  <a_nBr>
0

>  <a_nC>
26

>  <a_nCl>
0

>  <a_nF>
1

>  <a_nI>
0

>  <a_nN>
7

>  <a_nO>
4

>  <a_nP>
0

>  <a_nS>
0

>  <b_heavy>
42

>  <chi0>
26.974

>  <chi0_C>
17.4135

>  <chi1>
18.2569

>  <chi1_C>
8.44949

>  <FCharge>
0

>  <VAdjEq>
0.320144

>  <VAdjMa>
6.39232

>  <zagreb>
206

>  <balabanJ>
1.15904

>  <PEOE_PC+>
3.62681

>  <PEOE_PC->
-3.62681

>  <PEOE_RPC+>
0.0813665

>  <PEOE_RPC->
0.0987591

>  <PEOE_VSA+0>
146.002

>  <PEOE_VSA+1>
93.9002

>  <PEOE_VSA+2>
20.0987

>  <PEOE_VSA+3>
26.2589

>  <PEOE_VSA+4>
0

>  <PEOE_VSA+5>
47.3071

>  <PEOE_VSA+6>
0

>  <PEOE_VSA-0>
36.7647

>  <PEOE_VSA-1>
36.7647

>  <PEOE_VSA-2>
0

>  <PEOE_VSA-3>
9.42104

>  <PEOE_VSA-4>
17.5912

>  <PEOE_VSA-5>
58.143

>  <PEOE_VSA-6>
0.136891

>  <PEOE_VSA_FHYD>
0.749835

>  <PEOE_VSA_FNEG>
0.322553

>  <PEOE_VSA_FPNEG>
0.154088

>  <PEOE_VSA_FPOL>
0.250165

>  <PEOE_VSA_FPOS>
0.677446

>  <PEOE_VSA_FPPOS>
0.0960768

>  <PEOE_VSA_HYD>
369.21

>  <PEOE_VSA_NEG>
158.822

>  <PEOE_VSA_PNEG>
75.8711

>  <PEOE_VSA_POL>
123.178

>  <PEOE_VSA_POS>
333.567

>  <PEOE_VSA_PPOS>
47.3071

>  <PC+>
7.453

>  <PC->
-7.454

>  <Q_PC+>
7.453

>  <Q_PC->
-7.454

>  <Q_RPC+>
0.0959345

>  <Q_RPC->
0.0948484

>  <Q_VSA_FHYD>
0.443766

>  <Q_VSA_FNEG>
0.380112

>  <Q_VSA_FPNEG>
0.188503

>  <Q_VSA_FPOL>
0.556234

>  <Q_VSA_FPOS>
0.619888

>  <Q_VSA_FPPOS>
0.367731

>  <Q_VSA_HYD>
218.505

>  <Q_VSA_NEG>
187.163

>  <Q_VSA_PNEG>
92.8168

>  <Q_VSA_POL>
273.883

>  <Q_VSA_POS>
305.225

>  <Q_VSA_PPOS>
181.066

>  <RPC+>
0.0959345

>  <RPC->
0.0948484

>  <lip_acc>
11

>  <lip_don>
2

>  <lip_druglike>
0

>  <lip_violation>
2

>  <opr_brigid>
27

>  <opr_leadlike>
0

>  <opr_nring>
5

>  <opr_nrot>
7

>  <opr_violation>
3

>  <E>
106.531

>  <E_ang>
12.6228

>  <E_ele>
20.5856

>  <E_nb>
81.1505

>  <E_oop>
0.142594

>  <E_sol>
-25.4075

>  <E_stb>
0.789842

>  <E_str>
6.96683

>  <E_strain>
0.00692055

>  <E_tor>
4.85823

>  <E_vdw>
60.5649

>  <E_rele>
0

>  <E_rnb>
-1.42109e-014

>  <E_rsol>
-1.42109e-014

>  <E_rvdw>
0

>  <Kier1>
29.4909

>  <Kier2>
12.8869

>  <Kier3>
6.2782

>  <KierA1>
20.0064

>  <KierA2>
8.643

>  <KierA3>
4.17712

>  <KierFlex>
4.5504

>  <logS>
-4.05951

>  <MNDO_dipole>
3.67713

>  <MNDO_E>
-158632

>  <MNDO_Eele>
-1.28234e+006

>  <MNDO_HF>
-38.3947

>  <MNDO_HOMO>
-8.99175

>  <MNDO_IP>
8.99175

>  <MNDO_LUMO>
-1.06489

>  <apol>
73.228

>  <bpol>
39.852

>  <mr>
13.6971

>  <dipole>
0.587969

>  <dipoleX>
-0.219464

>  <dipoleY>
-0.478905

>  <dipoleZ>
0.261137

>  <pmi>
19580.3

>  <pmiX>
12858.8

>  <pmiY>
5874.36

>  <pmiZ>
847.135

>  <rgyr>
6.15099

>  <a_acc>
7

>  <a_acid>
0

>  <a_base>
0

>  <a_don>
3

>  <a_hyd>
23

>  <vsa_acc>
59.9503

>  <vsa_acid>
0

>  <vsa_base>
0

>  <vsa_don>
5.68258

>  <vsa_hyd>
338.8

>  <vsa_other>
47.3071

>  <vsa_pol>
84.4749

>  <PM3_dipole>
4.58017

>  <PM3_E>
-142949

>  <PM3_Eele>
-1.26535e+006

>  <PM3_HF>
-59.4059

>  <PM3_HOMO>
-8.8342

>  <PM3_IP>
8.8342

>  <PM3_LUMO>
-1.13583

>  <SlogP>
1.9612

>  <SlogP_VSA0>
0

>  <SlogP_VSA1>
64.2854

>  <SlogP_VSA2>
66.4318

>  <SlogP_VSA3>
73.7583

>  <SlogP_VSA4>
80.7145

>  <SlogP_VSA5>
65.7944

>  <SlogP_VSA6>
0

>  <SlogP_VSA7>
150.518

>  <SlogP_VSA8>
0

>  <SlogP_VSA9>
14.9601

>  <SMR>
13.4907

>  <SMR_VSA0>
95.4489

>  <SMR_VSA1>
57.7816

>  <SMR_VSA2>
42.5696

>  <SMR_VSA3>
9.1279

>  <SMR_VSA4>
10.2306

>  <SMR_VSA5>
140.288

>  <SMR_VSA6>
95.2223

>  <SMR_VSA7>
65.7944

>  <ASA>
806.561

>  <ASA+>
334.704

>  <ASA->
270.677

>  <ASA_H>
511.519

>  <ASA_P>
295.041

>  <CASA+>
2494.55

>  <CASA->
2017.63

>  <DASA>
64.0271

>  <DCASA>
476.924

>  <FASA+>
0.414977

>  <FASA->
0.335595

>  <FASA_H>
0.634198

>  <FASA_P>
0.365802

>  <FCASA+>
3.09283

>  <FCASA->
2.50152

>  <VSA>
505.804

>  <TPSA>
135.36

>  <density>
0.795581

>  <vdw_area>
492.388

>  <vdw_vol>
650.495

>  <vsurf_A>
1.80012

>  <vsurf_CP>
0.0646638

>  <vsurf_CW1>
2.63203

>  <vsurf_CW2>
2.15404

>  <vsurf_CW3>
1.56943

>  <vsurf_CW4>
0.759305

>  <vsurf_CW5>
0.362157

>  <vsurf_CW6>
0.152385

>  <vsurf_CW7>
0.042626

>  <vsurf_CW8>
0.0146502

>  <vsurf_D1>
1076.38

>  <vsurf_D2>
641.25

>  <vsurf_D3>
482.375

>  <vsurf_D4>
404.25

>  <vsurf_D5>
339.5

>  <vsurf_D6>
266.75

>  <vsurf_D7>
160.75

>  <vsurf_D8>
98.5

>  <vsurf_DD12>
0.707107

>  <vsurf_DD13>
1.11803

>  <vsurf_DD23>
0.5

>  <vsurf_DW12>
3.74166

>  <vsurf_DW13>
0.707107

>  <vsurf_DW23>
4.1833

>  <vsurf_EDmin1>
-2.77979

>  <vsurf_EDmin2>
-2.73591

>  <vsurf_EDmin3>
-2.69741

>  <vsurf_EWmin1>
-7.41079

>  <vsurf_EWmin2>
-7.13691

>  <vsurf_EWmin3>
-6.98294

>  <vsurf_G>
1.45896

>  <vsurf_HB1>
453.25

>  <vsurf_HB2>
559.625

>  <vsurf_HB3>
495.625

>  <vsurf_HB4>
206.625

>  <vsurf_HB5>
81.125

>  <vsurf_HB6>
31

>  <vsurf_HB7>
9.75

>  <vsurf_HB8>
3

>  <vsurf_HL1>
0.189946

>  <vsurf_HL2>
0.0816327

>  <vsurf_ID1>
0.577904

>  <vsurf_ID2>
0.47504

>  <vsurf_ID3>
0.458489

>  <vsurf_ID4>
0.555198

>  <vsurf_ID5>
0.803529

>  <vsurf_ID6>
1.20543

>  <vsurf_ID7>
0.846842

>  <vsurf_ID8>
0.601576

>  <vsurf_IW1>
0.342089

>  <vsurf_IW2>
0.5777

>  <vsurf_IW3>
0.951998

>  <vsurf_IW4>
1.19538

>  <vsurf_IW5>
1.71476

>  <vsurf_IW6>
2.89551

>  <vsurf_IW7>
5.13493

>  <vsurf_IW8>
6.17676

>  <vsurf_R>
1.4461

>  <vsurf_S>
734.475

>  <vsurf_V>
1062.13

>  <vsurf_W1>
1826.88

>  <vsurf_W2>
1157.5

>  <vsurf_W3>
648

>  <vsurf_W4>
235.625

>  <vsurf_W5>
91.625

>  <vsurf_W6>
33

>  <vsurf_W7>
9.75

>  <vsurf_W8>
3

>  <vsurf_Wp1>
1373.63

>  <vsurf_Wp2>
597.875

>  <vsurf_Wp3>
152.375

>  <vsurf_Wp4>
29

>  <vsurf_Wp5>
10.5

>  <vsurf_Wp6>
2

>  <vsurf_Wp7>
0

>  <vsurf_Wp8>
0

>  <dens>
1.11116

>  <glob>
0.0310118

>  <std_dim1>
6.41205

>  <std_dim2>
1.70011

>  <std_dim3>
1.12917

>  <vol>
465.75

>  <logP(o/w)>
1.36206

$$$$
D16.cdx
  MOE2008           3D

 51 55  0  0  0  0  0  0  0  0999 V2000
   -4.6580  -19.0330   -0.7510 C   0  0  0  0  0  0  0  0  0  0  0  0
   -5.5650  -18.4510   -0.8850 H   0  0  0  0  0  0  0  0  0  0  0  0
   -4.6750  -20.2640   -1.3070 N   0  0  0  0  0  0  0  0  0  0  0  0
   -3.5830  -21.0840   -1.1970 C   0  0  0  0  0  0  0  0  0  0  0  0
   -2.4730  -20.5780   -0.4870 C   0  0  0  0  0  0  0  0  0  0  0  0
   -2.4460  -19.3020    0.0920 C   0  0  0  0  0  0  0  0  0  0  0  0
   -3.5900  -18.5020   -0.0510 C   0  0  0  0  0  0  0  0  0  0  0  0
   -1.2530  -21.1610   -0.2140 N   0  0  0  0  0  0  0  0  0  0  0  0
   -0.9930  -22.0940   -0.5180 H   0  0  0  0  0  0  0  0  0  0  0  0
   -0.4650  -20.3110    0.5100 C   0  0  0  0  0  0  0  0  0  0  0  0
    0.5280  -20.6200    0.8110 H   0  0  0  0  0  0  0  0  0  0  0  0
   -1.1630  -19.1360    0.7230 C   0  0  0  0  0  0  0  0  0  0  0  0
   -0.6490  -17.9750    1.4450 C   0  0  0  0  0  0  0  0  0  0  0  0
    0.7560  -18.0000    2.0240 C   0  0  0  0  0  0  0  0  0  0  0  0
    1.7840  -17.5490    1.1980 N   0  0  0  0  0  0  0  0  0  0  0  0
    3.1620  -17.5830    1.6900 C   0  0  0  0  0  0  0  0  0  0  0  0
    3.3540  -16.6090    2.1550 H   0  0  0  0  0  0  0  0  0  0  0  0
    3.2660  -18.3460    2.4680 H   0  0  0  0  0  0  0  0  0  0  0  0
    4.1690  -17.8370    0.5640 C   0  0  0  0  0  0  0  0  0  0  0  0
    4.0000  -18.8340    0.1410 H   0  0  0  0  0  0  0  0  0  0  0  0
    5.1880  -17.8020    0.9610 H   0  0  0  0  0  0  0  0  0  0  0  0
    4.0320  -16.8770   -0.5430 N   0  0  0  0  0  0  0  0  0  0  0  0
    2.7450  -16.1870   -0.6640 C   0  0  0  0  0  0  0  0  0  0  0  0
    2.8280  -15.2690   -0.0690 H   0  0  0  0  0  0  0  0  0  0  0  0
    2.5730  -15.8880   -1.7040 H   0  0  0  0  0  0  0  0  0  0  0  0
    1.5720  -17.0320   -0.1600 C   0  0  0  0  0  0  0  0  0  0  0  0
    1.4380  -17.9060   -0.8090 H   0  0  0  0  0  0  0  0  0  0  0  0
    0.6490  -16.4460   -0.1950 H   0  0  0  0  0  0  0  0  0  0  0  0
    5.0400  -16.5620   -1.4530 C   0  0  0  0  0  0  0  0  0  0  0  0
    6.3100  -17.3210   -1.4010 C   0  0  0  0  0  0  0  0  0  0  0  0
   -1.2860  -16.9400    1.6100 O   0  0  0  0  0  0  0  0  0  0  0  0
    0.8940  -18.4200    3.1680 O   0  0  0  0  0  0  0  0  0  0  0  0
    4.9520  -15.6750   -2.2970 O   0  0  0  0  0  0  0  0  0  0  0  0
   -3.6870  -17.2660    0.4530 F   0  0  0  0  0  0  0  0  0  0  0  0
    6.3290  -18.6960   -1.6580 C   0  0  0  0  0  0  0  0  0  0  0  0
    5.4130  -19.2300   -1.8940 H   0  0  0  0  0  0  0  0  0  0  0  0
    7.5420  -19.3840   -1.6250 C   0  0  0  0  0  0  0  0  0  0  0  0
    7.5690  -20.4520   -1.8210 H   0  0  0  0  0  0  0  0  0  0  0  0
    8.7280  -18.6970   -1.3530 C   0  0  0  0  0  0  0  0  0  0  0  0
    9.6720  -19.2350   -1.3320 H   0  0  0  0  0  0  0  0  0  0  0  0
    8.7060  -17.3200   -1.1200 C   0  0  0  0  0  0  0  0  0  0  0  0
    9.6340  -16.7890   -0.9220 H   0  0  0  0  0  0  0  0  0  0  0  0
    7.4970  -16.6270   -1.1510 C   0  0  0  0  0  0  0  0  0  0  0  0
    7.4820  -15.5530   -0.9810 H   0  0  0  0  0  0  0  0  0  0  0  0
   -3.6060  -22.3740   -1.7870 N   0  0  0  0  0  0  0  0  0  0  0  0
   -4.6360  -22.9520   -2.4890 C   0  0  0  0  0  0  0  0  0  0  0  0
   -5.5750  -22.4460   -2.6620 H   0  0  0  0  0  0  0  0  0  0  0  0
   -4.1550  -24.1870   -2.8430 C   0  0  0  0  0  0  0  0  0  0  0  0
   -4.6490  -24.9660   -3.4070 H   0  0  0  0  0  0  0  0  0  0  0  0
   -2.8850  -24.3380   -2.3680 N   0  0  0  0  0  0  0  0  0  0  0  0
   -2.5530  -23.2270   -1.7220 N   0  0  0  0  0  0  0  0  0  0  0  0
  1  2  1  0  0  0  0
  1  3  1  0  0  0  0
  1  7  2  0  0  0  0
  3  4  2  0  0  0  0
  4  5  1  0  0  0  0
  4 45  1  0  0  0  0
  5  6  2  0  0  0  0
  5  8  1  0  0  0  0
  6  7  1  0  0  0  0
  6 12  1  0  0  0  0
  7 34  1  0  0  0  0
  8  9  1  0  0  0  0
  8 10  1  0  0  0  0
 10 11  1  0  0  0  0
 10 12  2  0  0  0  0
 12 13  1  0  0  0  0
 13 14  1  0  0  0  0
 13 31  2  0  0  0  0
 14 15  1  0  0  0  0
 14 32  2  0  0  0  0
 15 16  1  0  0  0  0
 15 26  1  0  0  0  0
 16 17  1  0  0  0  0
 16 18  1  0  0  0  0
 16 19  1  0  0  0  0
 19 20  1  0  0  0  0
 19 21  1  0  0  0  0
 19 22  1  0  0  0  0
 22 23  1  0  0  0  0
 22 29  1  0  0  0  0
 23 24  1  0  0  0  0
 23 25  1  0  0  0  0
 23 26  1  0  0  0  0
 26 27  1  0  0  0  0
 26 28  1  0  0  0  0
 29 30  1  0  0  0  0
 29 33  2  0  0  0  0
 30 35  1  0  0  0  0
 30 43  2  0  0  0  0
 35 36  1  0  0  0  0
 35 37  2  0  0  0  0
 37 38  1  0  0  0  0
 37 39  1  0  0  0  0
 39 40  1  0  0  0  0
 39 41  2  0  0  0  0
 41 42  1  0  0  0  0
 41 43  1  0  0  0  0
 43 44  1  0  0  0  0
 45 46  1  0  0  0  0
 45 51  1  0  0  0  0
 46 47  1  0  0  0  0
 46 48  2  0  0  0  0
 48 49  1  0  0  0  0
 48 50  1  0  0  0  0
 50 51  2  0  0  0  0
M  END
>  <Activity>
10.301

>  <AM1_dipole>
3.04033

>  <AM1_E>
-137298

>  <AM1_Eele>
-1.05825e+006

>  <AM1_HF>
76.9024

>  <AM1_HOMO>
-9.13745

>  <AM1_IP>
9.13745

>  <AM1_LUMO>
-1.30777

>  <diameter>
17

>  <petitjean>
0.470588

>  <petitjeanSC>
0.888889

>  <radius>
9

>  <VDistEq>
3.84292

>  <VDistMa>
9.77179

>  <weinerPath>
3443

>  <weinerPol>
56

>  <BCUT_PEOE_0>
-2.71188

>  <BCUT_PEOE_1>
-0.6336

>  <BCUT_PEOE_2>
0.710559

>  <BCUT_PEOE_3>
2.65031

>  <BCUT_SLOGP_0>
-2.86001

>  <BCUT_SLOGP_1>
-0.549778

>  <BCUT_SLOGP_2>
0.791557

>  <BCUT_SLOGP_3>
2.50327

>  <BCUT_SMR_0>
-2.43203

>  <BCUT_SMR_1>
-0.445641

>  <BCUT_SMR_2>
0.895379

>  <BCUT_SMR_3>
2.92024

>  <GCUT_PEOE_0>
-0.852069

>  <GCUT_PEOE_1>
-0.410605

>  <GCUT_PEOE_2>
0.0902513

>  <GCUT_PEOE_3>
2.68678

>  <GCUT_SLOGP_0>
-0.976516

>  <GCUT_SLOGP_1>
-0.353726

>  <GCUT_SLOGP_2>
0.177087

>  <GCUT_SLOGP_3>
2.65764

>  <GCUT_SMR_0>
-0.508918

>  <GCUT_SMR_1>
-0.216536

>  <GCUT_SMR_2>
0.256822

>  <GCUT_SMR_3>
2.95505

>  <a_aro>
20

>  <a_count>
51

>  <a_IC>
91.7212

>  <a_ICM>
1.79845

>  <a_nH>
18

>  <b_1rotN>
6

>  <b_1rotR>
0.162162

>  <b_ar>
21

>  <b_count>
55

>  <b_double>
3

>  <b_rotN>
6

>  <b_rotR>
0.162162

>  <b_single>
31

>  <b_triple>
0

>  <chi0v>
17.3106

>  <chi0v_C>
12.5246

>  <chi1v>
10.2453

>  <chi1v_C>
5.57137

>  <chiral>
0

>  <chiral_u>
0

>  <nmol>
1

>  <reactive>
0

>  <rings>
5

>  <Weight>
447.43

>  <a_heavy>
33

>  <a_nB>
0

>  <a_nBr>
0

>  <a_nC>
22

>  <a_nCl>
0

>  <a_nF>
1

>  <a_nI>
0

>  <a_nN>
7

>  <a_nO>
3

>  <a_nP>
0

>  <a_nS>
0

>  <b_heavy>
37

>  <chi0>
22.949

>  <chi0_C>
14.3885

>  <chi1>
16.0417

>  <chi1_C>
7.46633

>  <FCharge>
0

>  <VAdjEq>
0.358235

>  <VAdjMa>
6.20945

>  <zagreb>
180

>  <balabanJ>
1.16365

>  <PEOE_PC+>
2.95115

>  <PEOE_PC->
-2.95115

>  <PEOE_RPC+>
0.0999951

>  <PEOE_RPC->
0.120973

>  <PEOE_VSA+0>
71.7238

>  <PEOE_VSA+1>
133.866

>  <PEOE_VSA+2>
0

>  <PEOE_VSA+3>
28.8304

>  <PEOE_VSA+4>
0

>  <PEOE_VSA+5>
34.3576

>  <PEOE_VSA+6>
0

>  <PEOE_VSA-0>
24.5098

>  <PEOE_VSA-1>
49.9242

>  <PEOE_VSA-2>
9.42104

>  <PEOE_VSA-3>
0

>  <PEOE_VSA-4>
17.5912

>  <PEOE_VSA-5>
40.7008

>  <PEOE_VSA-6>
0.136891

>  <PEOE_VSA_FHYD>
0.774276

>  <PEOE_VSA_FNEG>
0.346138

>  <PEOE_VSA_FPNEG>
0.142141

>  <PEOE_VSA_FPOL>
0.225724

>  <PEOE_VSA_FPOS>
0.653862

>  <PEOE_VSA_FPPOS>
0.0835826

>  <PEOE_VSA_HYD>
318.275

>  <PEOE_VSA_NEG>
142.284

>  <PEOE_VSA_PNEG>
58.4289

>  <PEOE_VSA_POL>
92.7864

>  <PEOE_VSA_POS>
268.778

>  <PEOE_VSA_PPOS>
34.3576

>  <PC+>
6.076

>  <PC->
-6.077

>  <Q_PC+>
6.076

>  <Q_PC->
-6.077

>  <Q_RPC+>
0.107966

>  <Q_RPC->
0.108606

>  <Q_VSA_FHYD>
0.490606

>  <Q_VSA_FNEG>
0.448952

>  <Q_VSA_FPNEG>
0.249247

>  <Q_VSA_FPOL>
0.509394

>  <Q_VSA_FPOS>
0.551048

>  <Q_VSA_FPPOS>
0.260147

>  <Q_VSA_HYD>
201.669

>  <Q_VSA_NEG>
184.547

>  <Q_VSA_PNEG>
102.456

>  <Q_VSA_POL>
209.392

>  <Q_VSA_POS>
226.515

>  <Q_VSA_PPOS>
106.936

>  <RPC+>
0.107966

>  <RPC->
0.108606

>  <lip_acc>
10

>  <lip_don>
1

>  <lip_druglike>
1

>  <lip_violation>
0

>  <opr_brigid>
27

>  <opr_leadlike>
0

>  <opr_nring>
5

>  <opr_nrot>
6

>  <opr_violation>
2

>  <E>
110.103

>  <E_ang>
7.89547

>  <E_ele>
41.5641

>  <E_nb>
90.3814

>  <E_oop>
0.0466217

>  <E_sol>
-24.0557

>  <E_stb>
0.924128

>  <E_str>
6.79844

>  <E_strain>
0.00605775

>  <E_tor>
4.05717

>  <E_vdw>
48.8173

>  <E_rele>
0

>  <E_rnb>
0

>  <E_rsol>
0

>  <E_rvdw>
0

>  <Kier1>
24.6837

>  <Kier2>
10.9477

>  <Kier3>
5.12

>  <KierA1>
16.4345

>  <KierA2>
7.18809

>  <KierA3>
3.32766

>  <KierFlex>
3.57978

>  <logS>
-3.05186

>  <MNDO_dipole>
4.33719

>  <MNDO_E>
-137439

>  <MNDO_Eele>
-1.05173e+006

>  <MNDO_HF>
5.17045

>  <MNDO_HOMO>
-9.27139

>  <MNDO_IP>
9.27139

>  <MNDO_LUMO>
-1.3708

>  <apol>
61.3853

>  <bpol>
31.6747

>  <mr>
11.7342

>  <dipole>
1.09219

>  <dipoleX>
0.362446

>  <dipoleY>
-0.972059

>  <dipoleZ>
-0.341487

>  <pmi>
11441.3

>  <pmiX>
8031.34

>  <pmiY>
2450.45

>  <pmiZ>
959.512

>  <rgyr>
5.05679

>  <a_acc>
6

>  <a_acid>
0

>  <a_base>
0

>  <a_don>
1

>  <a_hyd>
19

>  <vsa_acc>
68.9639

>  <vsa_acid>
0

>  <vsa_base>
0

>  <vsa_don>
5.68258

>  <vsa_hyd>
275.693

>  <vsa_other>
45.5481

>  <vsa_pol>
74.6465

>  <PM3_dipole>
3.72201

>  <PM3_E>
-123086

>  <PM3_Eele>
-1.02961e+006

>  <PM3_HF>
7.16704

>  <PM3_HOMO>
-9.26458

>  <PM3_IP>
9.26458

>  <PM3_LUMO>
-1.50998

>  <SlogP>
1.45

>  <SlogP_VSA0>
0

>  <SlogP_VSA1>
74.2194

>  <SlogP_VSA2>
49.7688

>  <SlogP_VSA3>
73.7583

>  <SlogP_VSA4>
54.0956

>  <SlogP_VSA5>
0

>  <SlogP_VSA6>
0

>  <SlogP_VSA7>
164.118

>  <SlogP_VSA8>
0

>  <SlogP_VSA9>
14.9601

>  <SMR>
11.4225

>  <SMR_VSA0>
71.5866

>  <SMR_VSA1>
72.9743

>  <SMR_VSA2>
25.9065

>  <SMR_VSA3>
6.37115

>  <SMR_VSA4>
7.04502

>  <SMR_VSA5>
157.073

>  <SMR_VSA6>
89.9635

>  <SMR_VSA7>
0

>  <ASA>
686.143

>  <ASA+>
300.323

>  <ASA->
281.54

>  <ASA_H>
458.337

>  <ASA_P>
227.806

>  <CASA+>
1824.76

>  <CASA->
1710.92

>  <DASA>
18.7828

>  <DCASA>
113.843

>  <FASA+>
0.437697

>  <FASA->
0.410322

>  <FASA_H>
0.66799

>  <FASA_P>
0.33201

>  <FCASA+>
2.65945

>  <FCASA->
2.49353

>  <VSA>
426.138

>  <TPSA>
117.08

>  <density>
0.813726

>  <vdw_area>
411.062

>  <vdw_vol>
549.854

>  <vsurf_A>
2.35713

>  <vsurf_CP>
0.0758628

>  <vsurf_CW1>
2.70862

>  <vsurf_CW2>
2.28241

>  <vsurf_CW3>
1.65336

>  <vsurf_CW4>
0.813341

>  <vsurf_CW5>
0.391228

>  <vsurf_CW6>
0.153586

>  <vsurf_CW7>
0.0341072

>  <vsurf_CW8>
0.0148232

>  <vsurf_D1>
931.75

>  <vsurf_D2>
559.5

>  <vsurf_D3>
415.25

>  <vsurf_D4>
344.5

>  <vsurf_D5>
286.75

>  <vsurf_D6>
226.625

>  <vsurf_D7>
137.625

>  <vsurf_D8>
84.625

>  <vsurf_DD12>
1.11803

>  <vsurf_DD13>
3.77492

>  <vsurf_DD23>
3

>  <vsurf_DW12>
0.707107

>  <vsurf_DW13>
0.5

>  <vsurf_DW23>
1.11803

>  <vsurf_EDmin1>
-2.78819

>  <vsurf_EDmin2>
-2.78759

>  <vsurf_EDmin3>
-2.7585

>  <vsurf_EWmin1>
-7.79253

>  <vsurf_EWmin2>
-7.71374

>  <vsurf_EWmin3>
-7.55967

>  <vsurf_G>
1.38631

>  <vsurf_HB1>
443.25

>  <vsurf_HB2>
544.75

>  <vsurf_HB3>
486.625

>  <vsurf_HB4>
202.375

>  <vsurf_HB5>
82

>  <vsurf_HB6>
28.75

>  <vsurf_HB7>
7.375

>  <vsurf_HB8>
2.75

>  <vsurf_HL1>
0.204395

>  <vsurf_HL2>
0.08418

>  <vsurf_ID1>
1.33433

>  <vsurf_ID2>
1.29669

>  <vsurf_ID3>
1.40327

>  <vsurf_ID4>
1.71661

>  <vsurf_ID5>
2.0961

>  <vsurf_ID6>
2.16045

>  <vsurf_ID7>
1.14632

>  <vsurf_ID8>
0.805533

>  <vsurf_IW1>
0.460466

>  <vsurf_IW2>
0.858067

>  <vsurf_IW3>
1.28055

>  <vsurf_IW4>
1.35655

>  <vsurf_IW5>
1.63108

>  <vsurf_IW6>
2.63206

>  <vsurf_IW7>
4.56571

>  <vsurf_IW8>
5.11483

>  <vsurf_R>
1.44591

>  <vsurf_S>
629.966

>  <vsurf_V>
910.875

>  <vsurf_W1>
1651.25

>  <vsurf_W2>
1062.88

>  <vsurf_W3>
588.625

>  <vsurf_W4>
213.625

>  <vsurf_W5>
84.875

>  <vsurf_W6>
29

>  <vsurf_W7>
7.375

>  <vsurf_W8>
2.75

>  <vsurf_Wp1>
1208

>  <vsurf_Wp2>
518.125

>  <vsurf_Wp3>
102

>  <vsurf_Wp4>
11.25

>  <vsurf_Wp5>
2.875

>  <vsurf_Wp6>
0.25

>  <vsurf_Wp7>
0

>  <vsurf_Wp8>
0

>  <dens>
1.13995

>  <glob>
0.0585142

>  <std_dim1>
4.69729

>  <std_dim2>
2.07587

>  <std_dim3>
1.13626

>  <vol>
392.5

>  <logP(o/w)>
0.96559

$$$$
D16.cdx
  MOE2008           3D

 51 55  0  0  0  0  0  0  0  0999 V2000
   -3.4220  -24.2220    0.7120 C   0  0  0  0  0  0  0  0  0  0  0  0
   -4.3300  -23.6650    0.9210 H   0  0  0  0  0  0  0  0  0  0  0  0
   -3.5670  -25.2550   -0.1480 N   0  0  0  0  0  0  0  0  0  0  0  0
   -2.4870  -26.0300   -0.4850 C   0  0  0  0  0  0  0  0  0  0  0  0
   -1.2520  -25.6850    0.1090 C   0  0  0  0  0  0  0  0  0  0  0  0
   -1.0900  -24.6190    1.0000 C   0  0  0  0  0  0  0  0  0  0  0  0
   -2.2290  -23.8580    1.3090 C   0  0  0  0  0  0  0  0  0  0  0  0
   -0.0120  -26.2720   -0.0370 N   0  0  0  0  0  0  0  0  0  0  0  0
    0.1540  -27.0760   -0.6350 H   0  0  0  0  0  0  0  0  0  0  0  0
    0.9190  -25.6220    0.7210 C   0  0  0  0  0  0  0  0  0  0  0  0
    1.9480  -25.9610    0.7220 H   0  0  0  0  0  0  0  0  0  0  0  0
    0.2950  -24.5820    1.3870 C   0  0  0  0  0  0  0  0  0  0  0  0
    0.9620  -23.6490    2.2910 C   0  0  0  0  0  0  0  0  0  0  0  0
    2.4580  -23.7630    2.5310 C   0  0  0  0  0  0  0  0  0  0  0  0
    3.2870  -23.0160    1.6950 N   0  0  0  0  0  0  0  0  0  0  0  0
    4.7380  -23.1220    1.8490 C   0  0  0  0  0  0  0  0  0  0  0  0
    5.0380  -22.3350    2.5520 H   0  0  0  0  0  0  0  0  0  0  0  0
    5.0010  -24.0840    2.3010 H   0  0  0  0  0  0  0  0  0  0  0  0
    5.4730  -22.9450    0.5170 C   0  0  0  0  0  0  0  0  0  0  0  0
    5.2030  -23.7650   -0.1600 H   0  0  0  0  0  0  0  0  0  0  0  0
    6.5540  -22.9780    0.6800 H   0  0  0  0  0  0  0  0  0  0  0  0
    5.1110  -21.6930   -0.1660 N   0  0  0  0  0  0  0  0  0  0  0  0
    3.8340  -21.0810    0.2110 C   0  0  0  0  0  0  0  0  0  0  0  0
    4.0500  -20.3940    1.0380 H   0  0  0  0  0  0  0  0  0  0  0  0
    3.4430  -20.4820   -0.6190 H   0  0  0  0  0  0  0  0  0  0  0  0
    2.7900  -22.1130    0.6490 C   0  0  0  0  0  0  0  0  0  0  0  0
    2.5120  -22.7450   -0.2030 H   0  0  0  0  0  0  0  0  0  0  0  0
    1.8860  -21.6030    0.9950 H   0  0  0  0  0  0  0  0  0  0  0  0
    5.9030  -21.0440   -1.1110 C   0  0  0  0  0  0  0  0  0  0  0  0
    7.1410  -21.7060   -1.5800 C   0  0  0  0  0  0  0  0  0  0  0  0
    0.3810  -22.7420    2.8780 O   0  0  0  0  0  0  0  0  0  0  0  0
    2.8380  -24.5090    3.4270 O   0  0  0  0  0  0  0  0  0  0  0  0
    5.6460  -19.9380   -1.5800 O   0  0  0  0  0  0  0  0  0  0  0  0
   -2.2060  -22.8120    2.1430 F   0  0  0  0  0  0  0  0  0  0  0  0
    7.0830  -22.9250   -2.2620 C   0  0  0  0  0  0  0  0  0  0  0  0
    6.1290  -23.4100   -2.4550 H   0  0  0  0  0  0  0  0  0  0  0  0
    8.2630  -23.5170   -2.7130 C   0  0  0  0  0  0  0  0  0  0  0  0
    8.2300  -24.4660   -3.2430 H   0  0  0  0  0  0  0  0  0  0  0  0
    9.4890  -22.8850   -2.4960 C   0  0  0  0  0  0  0  0  0  0  0  0
   10.4070  -23.3460   -2.8520 H   0  0  0  0  0  0  0  0  0  0  0  0
    9.5400  -21.6560   -1.8350 C   0  0  0  0  0  0  0  0  0  0  0  0
   10.4960  -21.1620   -1.6800 H   0  0  0  0  0  0  0  0  0  0  0  0
    8.3640  -21.0590   -1.3800 C   0  0  0  0  0  0  0  0  0  0  0  0
    8.4030  -20.0960   -0.8760 H   0  0  0  0  0  0  0  0  0  0  0  0
   -2.6130  -27.1270   -1.3920 N   0  0  0  0  0  0  0  0  0  0  0  0
   -3.7960  -27.4740   -1.9710 N   0  0  0  0  0  0  0  0  0  0  0  0
   -3.4470  -28.5240   -2.7160 C   0  0  0  0  0  0  0  0  0  0  0  0
   -4.1900  -29.0350   -3.3120 H   0  0  0  0  0  0  0  0  0  0  0  0
   -2.0800  -28.7790   -2.5740 C   0  0  0  0  0  0  0  0  0  0  0  0
   -1.4690  -29.5460   -3.0280 H   0  0  0  0  0  0  0  0  0  0  0  0
   -1.5320  -27.8970   -1.7350 N   0  0  0  0  0  0  0  0  0  0  0  0
  1  2  1  0  0  0  0
  1  3  1  0  0  0  0
  1  7  2  0  0  0  0
  3  4  2  0  0  0  0
  4  5  1  0  0  0  0
  4 45  1  0  0  0  0
  5  6  2  0  0  0  0
  5  8  1  0  0  0  0
  6  7  1  0  0  0  0
  6 12  1  0  0  0  0
  7 34  1  0  0  0  0
  8  9  1  0  0  0  0
  8 10  1  0  0  0  0
 10 11  1  0  0  0  0
 10 12  2  0  0  0  0
 12 13  1  0  0  0  0
 13 14  1  0  0  0  0
 13 31  2  0  0  0  0
 14 15  1  0  0  0  0
 14 32  2  0  0  0  0
 15 16  1  0  0  0  0
 15 26  1  0  0  0  0
 16 17  1  0  0  0  0
 16 18  1  0  0  0  0
 16 19  1  0  0  0  0
 19 20  1  0  0  0  0
 19 21  1  0  0  0  0
 19 22  1  0  0  0  0
 22 23  1  0  0  0  0
 22 29  1  0  0  0  0
 23 24  1  0  0  0  0
 23 25  1  0  0  0  0
 23 26  1  0  0  0  0
 26 27  1  0  0  0  0
 26 28  1  0  0  0  0
 29 30  1  0  0  0  0
 29 33  2  0  0  0  0
 30 35  1  0  0  0  0
 30 43  2  0  0  0  0
 35 36  1  0  0  0  0
 35 37  2  0  0  0  0
 37 38  1  0  0  0  0
 37 39  1  0  0  0  0
 39 40  1  0  0  0  0
 39 41  2  0  0  0  0
 41 42  1  0  0  0  0
 41 43  1  0  0  0  0
 43 44  1  0  0  0  0
 45 46  1  0  0  0  0
 45 51  1  0  0  0  0
 46 47  2  0  0  0  0
 47 48  1  0  0  0  0
 47 49  1  0  0  0  0
 49 50  1  0  0  0  0
 49 51  2  0  0  0  0
M  END
>  <Activity>
8.3001

>  <AM1_dipole>
7.1387

>  <AM1_E>
-137286

>  <AM1_Eele>
-1.0591e+006

>  <AM1_HF>
88.373

>  <AM1_HOMO>
-9.08827

>  <AM1_IP>
9.08827

>  <AM1_LUMO>
-1.2093

>  <diameter>
17

>  <petitjean>
0.470588

>  <petitjeanSC>
0.888889

>  <radius>
9

>  <VDistEq>
3.84292

>  <VDistMa>
9.77179

>  <weinerPath>
3443

>  <weinerPol>
56

>  <BCUT_PEOE_0>
-2.71188

>  <BCUT_PEOE_1>
-0.639119

>  <BCUT_PEOE_2>
0.68984

>  <BCUT_PEOE_3>
2.65032

>  <BCUT_SLOGP_0>
-2.86001

>  <BCUT_SLOGP_1>
-0.555102

>  <BCUT_SLOGP_2>
0.805499

>  <BCUT_SLOGP_3>
2.50325

>  <BCUT_SMR_0>
-2.43203

>  <BCUT_SMR_1>
-0.445642

>  <BCUT_SMR_2>
0.883623

>  <BCUT_SMR_3>
2.92024

>  <GCUT_PEOE_0>
-0.851959

>  <GCUT_PEOE_1>
-0.40958

>  <GCUT_PEOE_2>
0.0807303

>  <GCUT_PEOE_3>
2.6839

>  <GCUT_SLOGP_0>
-0.97654

>  <GCUT_SLOGP_1>
-0.353352

>  <GCUT_SLOGP_2>
0.187512

>  <GCUT_SLOGP_3>
2.65209

>  <GCUT_SMR_0>
-0.508919

>  <GCUT_SMR_1>
-0.220689

>  <GCUT_SMR_2>
0.243381

>  <GCUT_SMR_3>
2.95156

>  <a_aro>
20

>  <a_count>
51

>  <a_IC>
91.7212

>  <a_ICM>
1.79845

>  <a_nH>
18

>  <b_1rotN>
6

>  <b_1rotR>
0.162162

>  <b_ar>
21

>  <b_count>
55

>  <b_double>
3

>  <b_rotN>
6

>  <b_rotR>
0.162162

>  <b_single>
31

>  <b_triple>
0

>  <chi0v>
17.3106

>  <chi0v_C>
12.5246

>  <chi1v>
10.2453

>  <chi1v_C>
5.57137

>  <chiral>
0

>  <chiral_u>
0

>  <nmol>
1

>  <reactive>
0

>  <rings>
5

>  <Weight>
447.43

>  <a_heavy>
33

>  <a_nB>
0

>  <a_nBr>
0

>  <a_nC>
22

>  <a_nCl>
0

>  <a_nF>
1

>  <a_nI>
0

>  <a_nN>
7

>  <a_nO>
3

>  <a_nP>
0

>  <a_nS>
0

>  <b_heavy>
37

>  <chi0>
22.949

>  <chi0_C>
14.3885

>  <chi1>
16.0417

>  <chi1_C>
7.46633

>  <FCharge>
0

>  <VAdjEq>
0.358235

>  <VAdjMa>
6.20945

>  <zagreb>
180

>  <balabanJ>
1.16365

>  <PEOE_PC+>
2.99047

>  <PEOE_PC->
-2.99047

>  <PEOE_RPC+>
0.0986805

>  <PEOE_RPC->
0.119367

>  <PEOE_VSA+0>
71.7238

>  <PEOE_VSA+1>
133.866

>  <PEOE_VSA+2>
0

>  <PEOE_VSA+3>
28.8304

>  <PEOE_VSA+4>
0

>  <PEOE_VSA+5>
34.3576

>  <PEOE_VSA+6>
0

>  <PEOE_VSA-0>
24.5098

>  <PEOE_VSA-1>
36.7647

>  <PEOE_VSA-2>
1.09959

>  <PEOE_VSA-3>
18.8421

>  <PEOE_VSA-4>
17.5912

>  <PEOE_VSA-5>
40.7008

>  <PEOE_VSA-6>
0.136891

>  <PEOE_VSA_FHYD>
0.772818

>  <PEOE_VSA_FNEG>
0.341913

>  <PEOE_VSA_FPNEG>
0.14306

>  <PEOE_VSA_FPOL>
0.227182

>  <PEOE_VSA_FPOS>
0.658087

>  <PEOE_VSA_FPPOS>
0.0841226

>  <PEOE_VSA_HYD>
315.636

>  <PEOE_VSA_NEG>
139.645

>  <PEOE_VSA_PNEG>
58.4289

>  <PEOE_VSA_POL>
92.7864

>  <PEOE_VSA_POS>
268.778

>  <PEOE_VSA_PPOS>
34.3576

>  <PC+>
6.543

>  <PC->
-6.544

>  <Q_PC+>
6.543

>  <Q_PC->
-6.544

>  <Q_RPC+>
0.131285

>  <Q_RPC->
0.108038

>  <Q_VSA_FHYD>
0.534778

>  <Q_VSA_FNEG>
0.401698

>  <Q_VSA_FPNEG>
0.200702

>  <Q_VSA_FPOL>
0.465222

>  <Q_VSA_FPOS>
0.598302

>  <Q_VSA_FPPOS>
0.26452

>  <Q_VSA_HYD>
218.415

>  <Q_VSA_NEG>
164.063

>  <Q_VSA_PNEG>
81.9713

>  <Q_VSA_POL>
190.007

>  <Q_VSA_POS>
244.36

>  <Q_VSA_PPOS>
108.036

>  <RPC+>
0.131285

>  <RPC->
0.108038

>  <lip_acc>
10

>  <lip_don>
1

>  <lip_druglike>
1

>  <lip_violation>
0

>  <opr_brigid>
27

>  <opr_leadlike>
0

>  <opr_nring>
5

>  <opr_nrot>
6

>  <opr_violation>
2

>  <E>
123.847

>  <E_ang>
7.99477

>  <E_ele>
54.2538

>  <E_nb>
103.333

>  <E_oop>
0.045725

>  <E_sol>
-27.4084

>  <E_stb>
0.803302

>  <E_str>
7.6321

>  <E_strain>
0.0055658

>  <E_tor>
4.03745

>  <E_vdw>
49.0796

>  <E_rele>
0

>  <E_rnb>
1.77636e-014

>  <E_rsol>
1.77636e-014

>  <E_rvdw>
0

>  <Kier1>
24.6837

>  <Kier2>
10.9477

>  <Kier3>
5.12

>  <KierA1>
16.4345

>  <KierA2>
7.18809

>  <KierA3>
3.32766

>  <KierFlex>
3.57978

>  <logS>
-3.05186

>  <MNDO_dipole>
7.42435

>  <MNDO_E>
-137432

>  <MNDO_Eele>
-1.05103e+006

>  <MNDO_HF>
12.3241

>  <MNDO_HOMO>
-9.39245

>  <MNDO_IP>
9.39245

>  <MNDO_LUMO>
-1.20152

>  <apol>
61.3853

>  <bpol>
31.6747

>  <mr>
11.7342

>  <dipole>
2.12426

>  <dipoleX>
1.02295

>  <dipoleY>
-1.52061

>  <dipoleZ>
-1.07415

>  <pmi>
11440.7

>  <pmiX>
7664.64

>  <pmiY>
2337.04

>  <pmiZ>
1438.99

>  <rgyr>
5.05665

>  <a_acc>
6

>  <a_acid>
0

>  <a_base>
0

>  <a_don>
1

>  <a_hyd>
19

>  <vsa_acc>
65.2254

>  <vsa_acid>
0

>  <vsa_base>
0

>  <vsa_don>
5.68258

>  <vsa_hyd>
275.693

>  <vsa_other>
46.6477

>  <vsa_pol>
70.908

>  <PM3_dipole>
6.41835

>  <PM3_E>
-123079

>  <PM3_Eele>
-1.03162e+006

>  <PM3_HF>
13.731

>  <PM3_HOMO>
-9.15174

>  <PM3_IP>
9.15174

>  <PM3_LUMO>
-1.44576

>  <SlogP>
1.45

>  <SlogP_VSA0>
0

>  <SlogP_VSA1>
74.2194

>  <SlogP_VSA2>
49.7688

>  <SlogP_VSA3>
73.7583

>  <SlogP_VSA4>
54.0956

>  <SlogP_VSA5>
0

>  <SlogP_VSA6>
0

>  <SlogP_VSA7>
164.118

>  <SlogP_VSA8>
0

>  <SlogP_VSA9>
14.9601

>  <SMR>
11.4225

>  <SMR_VSA0>
71.5866

>  <SMR_VSA1>
72.9743

>  <SMR_VSA2>
25.9065

>  <SMR_VSA3>
6.37115

>  <SMR_VSA4>
7.04502

>  <SMR_VSA5>
157.073

>  <SMR_VSA6>
89.9635

>  <SMR_VSA7>
0

>  <ASA>
702.826

>  <ASA+>
346.984

>  <ASA->
250.391

>  <ASA_H>
504.468

>  <ASA_P>
198.358

>  <CASA+>
2270.32

>  <CASA->
1638.56

>  <DASA>
96.593

>  <DCASA>
631.758

>  <FASA+>
0.493699

>  <FASA->
0.356263

>  <FASA_H>
0.717771

>  <FASA_P>
0.282229

>  <FCASA+>
3.23027

>  <FCASA->
2.33139

>  <VSA>
429.665

>  <TPSA>
117.08

>  <density>
0.813726

>  <vdw_area>
408.423

>  <vdw_vol>
549.854

>  <vsurf_A>
3.95748

>  <vsurf_CP>
0.0772095

>  <vsurf_CW1>
2.67349

>  <vsurf_CW2>
2.2114

>  <vsurf_CW3>
1.56356

>  <vsurf_CW4>
0.784783

>  <vsurf_CW5>
0.389171

>  <vsurf_CW6>
0.170873

>  <vsurf_CW7>
0.0692966

>  <vsurf_CW8>
0.0370508

>  <vsurf_D1>
956.75

>  <vsurf_D2>
560

>  <vsurf_D3>
420.5

>  <vsurf_D4>
349.75

>  <vsurf_D5>
297.5

>  <vsurf_D6>
236.875

>  <vsurf_D7>
141.25

>  <vsurf_D8>
85.125

>  <vsurf_DD12>
0.5

>  <vsurf_DD13>
0.5

>  <vsurf_DD23>
0.707107

>  <vsurf_DW12>
0.707107

>  <vsurf_DW13>
0.5

>  <vsurf_DW23>
0.866025

>  <vsurf_EDmin1>
-2.79421

>  <vsurf_EDmin2>
-2.74762

>  <vsurf_EDmin3>
-2.74101

>  <vsurf_EWmin1>
-9.90236

>  <vsurf_EWmin2>
-9.45043

>  <vsurf_EWmin3>
-9.02004

>  <vsurf_G>
1.38923

>  <vsurf_HB1>
403.625

>  <vsurf_HB2>
500.75

>  <vsurf_HB3>
465.375

>  <vsurf_HB4>
206.125

>  <vsurf_HB5>
87.375

>  <vsurf_HB6>
35.625

>  <vsurf_HB7>
15.25

>  <vsurf_HB8>
7.25

>  <vsurf_HL1>
0.213436

>  <vsurf_HL2>
0.101858

>  <vsurf_ID1>
1.57147

>  <vsurf_ID2>
1.49123

>  <vsurf_ID3>
1.61913

>  <vsurf_ID4>
1.91986

>  <vsurf_ID5>
2.18905

>  <vsurf_ID6>
2.31639

>  <vsurf_ID7>
1.30115

>  <vsurf_ID8>
0.771972

>  <vsurf_IW1>
0.226106

>  <vsurf_IW2>
1.03374

>  <vsurf_IW3>
1.69019

>  <vsurf_IW4>
2.34748

>  <vsurf_IW5>
2.82558

>  <vsurf_IW6>
4.34272

>  <vsurf_IW7>
6.64042

>  <vsurf_IW8>
7.4678

>  <vsurf_R>
1.44373

>  <vsurf_S>
632.042

>  <vsurf_V>
912.5

>  <vsurf_W1>
1608.13

>  <vsurf_W2>
1009.13

>  <vsurf_W3>
569.625

>  <vsurf_W4>
215.5

>  <vsurf_W5>
89.75

>  <vsurf_W6>
35.625

>  <vsurf_W7>
15.25

>  <vsurf_W8>
7.25

>  <vsurf_Wp1>
1204.5

>  <vsurf_Wp2>
508.375

>  <vsurf_Wp3>
104.25

>  <vsurf_Wp4>
9.375

>  <vsurf_Wp5>
2.375

>  <vsurf_Wp6>
0

>  <vsurf_Wp7>
0

>  <vsurf_Wp8>
0

>  <dens>
1.13309

>  <glob>
0.0599728

>  <std_dim1>
4.64618

>  <std_dim2>
2.14784

>  <std_dim3>
1.13782

>  <vol>
394.875

>  <logP(o/w)>
1.31012

$$$$
D17.cdx
  MOE2008           3D

 51 55  0  0  0  0  0  0  0  0999 V2000
   -7.0340   26.9340   -0.3880 C   0  0  0  0  0  0  0  0  0  0  0  0
   -7.9530   27.4770   -0.5850 H   0  0  0  0  0  0  0  0  0  0  0  0
   -7.1040   26.0270    0.6140 N   0  0  0  0  0  0  0  0  0  0  0  0
   -5.9990   25.2900    0.9400 C   0  0  0  0  0  0  0  0  0  0  0  0
   -4.8280   25.5250    0.1960 C   0  0  0  0  0  0  0  0  0  0  0  0
   -4.7440   26.4570   -0.8410 C   0  0  0  0  0  0  0  0  0  0  0  0
   -5.9010   27.1920   -1.1410 C   0  0  0  0  0  0  0  0  0  0  0  0
   -3.5890   24.9330    0.3100 N   0  0  0  0  0  0  0  0  0  0  0  0
   -3.3800   24.2140    0.9960 H   0  0  0  0  0  0  0  0  0  0  0  0
   -2.7280   25.4520   -0.6110 C   0  0  0  0  0  0  0  0  0  0  0  0
   -1.7080   25.0910   -0.6610 H   0  0  0  0  0  0  0  0  0  0  0  0
   -3.4030   26.4060   -1.3530 C   0  0  0  0  0  0  0  0  0  0  0  0
   -2.8080   27.1810   -2.4350 C   0  0  0  0  0  0  0  0  0  0  0  0
   -1.3450   26.9650   -2.7790 C   0  0  0  0  0  0  0  0  0  0  0  0
   -0.4240   27.8000   -2.1520 N   0  0  0  0  0  0  0  0  0  0  0  0
    1.0040   27.5780   -2.3760 C   0  0  0  0  0  0  0  0  0  0  0  0
    1.1860   26.5340   -2.6520 H   0  0  0  0  0  0  0  0  0  0  0  0
    1.2890   28.2000   -3.2330 H   0  0  0  0  0  0  0  0  0  0  0  0
    1.8440   27.9530   -1.1510 C   0  0  0  0  0  0  0  0  0  0  0  0
    2.9070   27.8200   -1.3740 H   0  0  0  0  0  0  0  0  0  0  0  0
    1.5840   27.2960   -0.3140 H   0  0  0  0  0  0  0  0  0  0  0  0
    1.5980   29.3320   -0.7010 N   0  0  0  0  0  0  0  0  0  0  0  0
    0.3250   29.9390   -1.0980 C   0  0  0  0  0  0  0  0  0  0  0  0
    0.0280   30.7020   -0.3700 H   0  0  0  0  0  0  0  0  0  0  0  0
    0.5080   30.4490   -2.0520 H   0  0  0  0  0  0  0  0  0  0  0  0
   -0.7960   28.9090   -1.2640 C   0  0  0  0  0  0  0  0  0  0  0  0
   -1.6990   29.3990   -1.6390 H   0  0  0  0  0  0  0  0  0  0  0  0
   -1.0380   28.4630   -0.2920 H   0  0  0  0  0  0  0  0  0  0  0  0
    2.4940   30.1010    0.0410 C   0  0  0  0  0  0  0  0  0  0  0  0
    3.7340   29.4650    0.5420 C   0  0  0  0  0  0  0  0  0  0  0  0
   -3.4140   28.0210   -3.0920 O   0  0  0  0  0  0  0  0  0  0  0  0
   -1.0730   26.0500   -3.5490 O   0  0  0  0  0  0  0  0  0  0  0  0
    2.3290   31.2890    0.3000 O   0  0  0  0  0  0  0  0  0  0  0  0
   -5.9500   28.1170   -2.1070 F   0  0  0  0  0  0  0  0  0  0  0  0
    4.9660   29.9870    0.1380 C   0  0  0  0  0  0  0  0  0  0  0  0
    5.0090   30.8320   -0.5450 H   0  0  0  0  0  0  0  0  0  0  0  0
    6.1450   29.4170    0.6170 C   0  0  0  0  0  0  0  0  0  0  0  0
    7.1080   29.8140    0.3050 H   0  0  0  0  0  0  0  0  0  0  0  0
    6.0890   28.3410    1.5050 C   0  0  0  0  0  0  0  0  0  0  0  0
    7.0100   27.9010    1.8800 H   0  0  0  0  0  0  0  0  0  0  0  0
    4.8560   27.8370    1.9240 C   0  0  0  0  0  0  0  0  0  0  0  0
    4.8220   27.0090    2.6280 H   0  0  0  0  0  0  0  0  0  0  0  0
    3.6730   28.4020    1.4500 C   0  0  0  0  0  0  0  0  0  0  0  0
    2.7160   28.0220    1.7970 H   0  0  0  0  0  0  0  0  0  0  0  0
   -6.0490   24.3340    1.9830 N   0  0  0  0  0  0  0  0  0  0  0  0
   -7.1250   24.0130    2.7650 C   0  0  0  0  0  0  0  0  0  0  0  0
   -8.0940   24.4800    2.6580 H   0  0  0  0  0  0  0  0  0  0  0  0
   -6.7920   23.0800    3.6270 N   0  0  0  0  0  0  0  0  0  0  0  0
   -5.4790   22.8530    3.3350 C   0  0  0  0  0  0  0  0  0  0  0  0
   -4.8740   22.1280    3.8620 H   0  0  0  0  0  0  0  0  0  0  0  0
   -4.9700   23.5890    2.3440 N   0  0  0  0  0  0  0  0  0  0  0  0
  1  2  1  0  0  0  0
  1  3  1  0  0  0  0
  1  7  2  0  0  0  0
  3  4  2  0  0  0  0
  4  5  1  0  0  0  0
  4 45  1  0  0  0  0
  5  6  2  0  0  0  0
  5  8  1  0  0  0  0
  6  7  1  0  0  0  0
  6 12  1  0  0  0  0
  7 34  1  0  0  0  0
  8  9  1  0  0  0  0
  8 10  1  0  0  0  0
 10 11  1  0  0  0  0
 10 12  2  0  0  0  0
 12 13  1  0  0  0  0
 13 14  1  0  0  0  0
 13 31  2  0  0  0  0
 14 15  1  0  0  0  0
 14 32  2  0  0  0  0
 15 16  1  0  0  0  0
 15 26  1  0  0  0  0
 16 17  1  0  0  0  0
 16 18  1  0  0  0  0
 16 19  1  0  0  0  0
 19 20  1  0  0  0  0
 19 21  1  0  0  0  0
 19 22  1  0  0  0  0
 22 23  1  0  0  0  0
 22 29  1  0  0  0  0
 23 24  1  0  0  0  0
 23 25  1  0  0  0  0
 23 26  1  0  0  0  0
 26 27  1  0  0  0  0
 26 28  1  0  0  0  0
 29 30  1  0  0  0  0
 29 33  2  0  0  0  0
 30 35  1  0  0  0  0
 30 43  2  0  0  0  0
 35 36  1  0  0  0  0
 35 37  2  0  0  0  0
 37 38  1  0  0  0  0
 37 39  1  0  0  0  0
 39 40  1  0  0  0  0
 39 41  2  0  0  0  0
 41 42  1  0  0  0  0
 41 43  1  0  0  0  0
 43 44  1  0  0  0  0
 45 46  1  0  0  0  0
 45 51  1  0  0  0  0
 46 47  1  0  0  0  0
 46 48  2  0  0  0  0
 48 49  1  0  0  0  0
 49 50  1  0  0  0  0
 49 51  2  0  0  0  0
M  END
>  <Activity>
10.1549

>  <AM1_dipole>
4.72718

>  <AM1_E>
-137307

>  <AM1_Eele>
-1.05932e+006

>  <AM1_HF>
67.0757

>  <AM1_HOMO>
-9.08216

>  <AM1_IP>
9.08216

>  <AM1_LUMO>
-1.27354

>  <diameter>
17

>  <petitjean>
0.470588

>  <petitjeanSC>
0.888889

>  <radius>
9

>  <VDistEq>
3.84292

>  <VDistMa>
9.77179

>  <weinerPath>
3443

>  <weinerPol>
56

>  <BCUT_PEOE_0>
-2.71188

>  <BCUT_PEOE_1>
-0.638178

>  <BCUT_PEOE_2>
0.655871

>  <BCUT_PEOE_3>
2.65031

>  <BCUT_SLOGP_0>
-2.86001

>  <BCUT_SLOGP_1>
-0.55467

>  <BCUT_SLOGP_2>
0.776322

>  <BCUT_SLOGP_3>
2.50326

>  <BCUT_SMR_0>
-2.43203

>  <BCUT_SMR_1>
-0.445641

>  <BCUT_SMR_2>
0.859617

>  <BCUT_SMR_3>
2.92024

>  <GCUT_PEOE_0>
-0.852102

>  <GCUT_PEOE_1>
-0.40992

>  <GCUT_PEOE_2>
0.0800771

>  <GCUT_PEOE_3>
2.68645

>  <GCUT_SLOGP_0>
-0.976505

>  <GCUT_SLOGP_1>
-0.360213

>  <GCUT_SLOGP_2>
0.176217

>  <GCUT_SLOGP_3>
2.65674

>  <GCUT_SMR_0>
-0.508918

>  <GCUT_SMR_1>
-0.220583

>  <GCUT_SMR_2>
0.218055

>  <GCUT_SMR_3>
2.95469

>  <a_aro>
20

>  <a_count>
51

>  <a_IC>
91.7212

>  <a_ICM>
1.79845

>  <a_nH>
18

>  <b_1rotN>
6

>  <b_1rotR>
0.162162

>  <b_ar>
21

>  <b_count>
55

>  <b_double>
3

>  <b_rotN>
6

>  <b_rotR>
0.162162

>  <b_single>
31

>  <b_triple>
0

>  <chi0v>
17.3106

>  <chi0v_C>
12.5246

>  <chi1v>
10.2284

>  <chi1v_C>
5.23803

>  <chiral>
0

>  <chiral_u>
0

>  <nmol>
1

>  <reactive>
0

>  <rings>
5

>  <Weight>
447.43

>  <a_heavy>
33

>  <a_nB>
0

>  <a_nBr>
0

>  <a_nC>
22

>  <a_nCl>
0

>  <a_nF>
1

>  <a_nI>
0

>  <a_nN>
7

>  <a_nO>
3

>  <a_nP>
0

>  <a_nS>
0

>  <b_heavy>
37

>  <chi0>
22.949

>  <chi0_C>
14.3885

>  <chi1>
16.0417

>  <chi1_C>
6.96633

>  <FCharge>
0

>  <VAdjEq>
0.358235

>  <VAdjMa>
6.20945

>  <zagreb>
180

>  <balabanJ>
1.16365

>  <PEOE_PC+>
3.12885

>  <PEOE_PC->
-3.12885

>  <PEOE_RPC+>
0.094316

>  <PEOE_RPC->
0.114102

>  <PEOE_VSA+0>
71.7238

>  <PEOE_VSA+1>
91.8433

>  <PEOE_VSA+2>
51.0046

>  <PEOE_VSA+3>
28.8304

>  <PEOE_VSA+4>
0

>  <PEOE_VSA+5>
34.3576

>  <PEOE_VSA+6>
0

>  <PEOE_VSA-0>
24.5098

>  <PEOE_VSA-1>
36.7647

>  <PEOE_VSA-2>
0

>  <PEOE_VSA-3>
9.42104

>  <PEOE_VSA-4>
23.2738

>  <PEOE_VSA-5>
40.7008

>  <PEOE_VSA-6>
0.136891

>  <PEOE_VSA_FHYD>
0.761326

>  <PEOE_VSA_FNEG>
0.326752

>  <PEOE_VSA_FPNEG>
0.155397

>  <PEOE_VSA_FPOL>
0.238674

>  <PEOE_VSA_FPOS>
0.673248

>  <PEOE_VSA_FPPOS>
0.0832776

>  <PEOE_VSA_HYD>
314.098

>  <PEOE_VSA_NEG>
134.807

>  <PEOE_VSA_PNEG>
64.1114

>  <PEOE_VSA_POL>
98.469

>  <PEOE_VSA_POS>
277.76

>  <PEOE_VSA_PPOS>
34.3576

>  <PC+>
6.402

>  <PC->
-6.402

>  <Q_PC+>
6.402

>  <Q_PC->
-6.402

>  <Q_RPC+>
0.102468

>  <Q_RPC->
0.110434

>  <Q_VSA_FHYD>
0.499702

>  <Q_VSA_FNEG>
0.388602

>  <Q_VSA_FPNEG>
0.189625

>  <Q_VSA_FPOL>
0.500298

>  <Q_VSA_FPOS>
0.611398

>  <Q_VSA_FPPOS>
0.310673

>  <Q_VSA_HYD>
206.16

>  <Q_VSA_NEG>
160.324

>  <Q_VSA_PNEG>
78.2329

>  <Q_VSA_POL>
206.406

>  <Q_VSA_POS>
252.243

>  <Q_VSA_PPOS>
128.173

>  <RPC+>
0.102468

>  <RPC->
0.110434

>  <lip_acc>
10

>  <lip_don>
1

>  <lip_druglike>
1

>  <lip_violation>
0

>  <opr_brigid>
27

>  <opr_leadlike>
0

>  <opr_nring>
5

>  <opr_nrot>
6

>  <opr_violation>
2

>  <E>
110.496

>  <E_ang>
7.60606

>  <E_ele>
41.1798

>  <E_nb>
91.5806

>  <E_oop>
0.0756602

>  <E_sol>
-22.0914

>  <E_stb>
0.862345

>  <E_str>
6.2998

>  <E_strain>
0.0050113

>  <E_tor>
4.0717

>  <E_vdw>
50.4008

>  <E_rele>
0

>  <E_rnb>
-1.13687e-013

>  <E_rsol>
-1.13687e-013

>  <E_rvdw>
0

>  <Kier1>
24.6837

>  <Kier2>
10.9477

>  <Kier3>
5.12

>  <KierA1>
16.4345

>  <KierA2>
7.18809

>  <KierA3>
3.32766

>  <KierFlex>
3.57978

>  <logS>
-3.69406

>  <MNDO_dipole>
5.5862

>  <MNDO_E>
-137446

>  <MNDO_Eele>
-1.05146e+006

>  <MNDO_HF>
-1.29204

>  <MNDO_HOMO>
-9.20058

>  <MNDO_IP>
9.20058

>  <MNDO_LUMO>
-1.34006

>  <apol>
61.3853

>  <bpol>
32.9947

>  <mr>
11.7352

>  <dipole>
1.27721

>  <dipoleX>
0.784076

>  <dipoleY>
-0.761853

>  <dipoleZ>
0.660355

>  <pmi>
11437

>  <pmiX>
7801.92

>  <pmiY>
2074.16

>  <pmiZ>
1560.9

>  <rgyr>
5.05584

>  <a_acc>
6

>  <a_acid>
0

>  <a_base>
0

>  <a_don>
1

>  <a_hyd>
17

>  <vsa_acc>
61.487

>  <vsa_acid>
0

>  <vsa_base>
0

>  <vsa_don>
5.68258

>  <vsa_hyd>
235.094

>  <vsa_other>
95.1292

>  <vsa_pol>
67.1695

>  <PM3_dipole>
5.12802

>  <PM3_E>
-123102

>  <PM3_Eele>
-1.0291e+006

>  <PM3_HF>
-9.23654

>  <PM3_HOMO>
-9.24526

>  <PM3_IP>
9.24526

>  <PM3_LUMO>
-1.49118

>  <SlogP>
1.45

>  <SlogP_VSA0>
0

>  <SlogP_VSA1>
74.4644

>  <SlogP_VSA2>
49.7688

>  <SlogP_VSA3>
73.7583

>  <SlogP_VSA4>
54.0956

>  <SlogP_VSA5>
0

>  <SlogP_VSA6>
0

>  <SlogP_VSA7>
163.261

>  <SlogP_VSA8>
0

>  <SlogP_VSA9>
14.9601

>  <SMR>
11.4225

>  <SMR_VSA0>
71.5866

>  <SMR_VSA1>
73.2194

>  <SMR_VSA2>
25.9065

>  <SMR_VSA3>
6.37115

>  <SMR_VSA4>
7.04502

>  <SMR_VSA5>
156.216

>  <SMR_VSA6>
89.9635

>  <SMR_VSA7>
0

>  <ASA>
691.712

>  <ASA+>
339.008

>  <ASA->
248.179

>  <ASA_H>
463.452

>  <ASA_P>
228.26

>  <CASA+>
2170.33

>  <CASA->
1588.84

>  <DASA>
90.829

>  <DCASA>
581.487

>  <FASA+>
0.4901

>  <FASA->
0.358789

>  <FASA_H>
0.670007

>  <FASA_P>
0.329993

>  <FCASA+>
3.13762

>  <FCASA->
2.29697

>  <VSA>
428.272

>  <TPSA>
117.08

>  <density>
0.812526

>  <vdw_area>
412.567

>  <vdw_vol>
550.666

>  <vsurf_A>
3.27252

>  <vsurf_CP>
0.0757113

>  <vsurf_CW1>
2.72525

>  <vsurf_CW2>
2.32211

>  <vsurf_CW3>
1.71836

>  <vsurf_CW4>
0.819047

>  <vsurf_CW5>
0.3853

>  <vsurf_CW6>
0.139493

>  <vsurf_CW7>
0.0223565

>  <vsurf_CW8>
0.00955709

>  <vsurf_D1>
923.625

>  <vsurf_D2>
544.875

>  <vsurf_D3>
403.75

>  <vsurf_D4>
327.5

>  <vsurf_D5>
276.125

>  <vsurf_D6>
221.625

>  <vsurf_D7>
135.125

>  <vsurf_D8>
86.875

>  <vsurf_DD12>
3.20156

>  <vsurf_DD13>
0.5

>  <vsurf_DD23>
3.4641

>  <vsurf_DW12>
0.707107

>  <vsurf_DW13>
1.11803

>  <vsurf_DW23>
0.5

>  <vsurf_EDmin1>
-2.8334

>  <vsurf_EDmin2>
-2.8251

>  <vsurf_EDmin3>
-2.76579

>  <vsurf_EWmin1>
-7.16983

>  <vsurf_EWmin2>
-7.10991

>  <vsurf_EWmin3>
-6.89449

>  <vsurf_G>
1.38351

>  <vsurf_HB1>
462.5

>  <vsurf_HB2>
570.375

>  <vsurf_HB3>
491.875

>  <vsurf_HB4>
202.125

>  <vsurf_HB5>
75.375

>  <vsurf_HB6>
24.5

>  <vsurf_HB7>
4.75

>  <vsurf_HB8>
1.625

>  <vsurf_HL1>
0.193189

>  <vsurf_HL2>
0.0748092

>  <vsurf_ID1>
1.51256

>  <vsurf_ID2>
1.44634

>  <vsurf_ID3>
1.59477

>  <vsurf_ID4>
2.01531

>  <vsurf_ID5>
2.44035

>  <vsurf_ID6>
2.61807

>  <vsurf_ID7>
1.37218

>  <vsurf_ID8>
0.942972

>  <vsurf_IW1>
0.595582

>  <vsurf_IW2>
1.27894

>  <vsurf_IW3>
1.77339

>  <vsurf_IW4>
1.94347

>  <vsurf_IW5>
2.01317

>  <vsurf_IW6>
2.31822

>  <vsurf_IW7>
3.92437

>  <vsurf_IW8>
4.96784

>  <vsurf_R>
1.44764

>  <vsurf_S>
627.658

>  <vsurf_V>
908.625

>  <vsurf_W1>
1662.25

>  <vsurf_W2>
1077.38

>  <vsurf_W3>
600.25

>  <vsurf_W4>
211.375

>  <vsurf_W5>
78

>  <vsurf_W6>
24.5

>  <vsurf_W7>
4.75

>  <vsurf_W8>
1.625

>  <vsurf_Wp1>
1199.75

>  <vsurf_Wp2>
507

>  <vsurf_Wp3>
108.375

>  <vsurf_Wp4>
9.25

>  <vsurf_Wp5>
2.625

>  <vsurf_Wp6>
0

>  <vsurf_Wp7>
0

>  <vsurf_Wp8>
0

>  <dens>
1.13886

>  <glob>
0.0604868

>  <std_dim1>
4.63138

>  <std_dim2>
2.10039

>  <std_dim3>
1.13905

>  <vol>
392.875

>  <logP(o/w)>
0.51059

$$$$
D17.cdx
  MOE2008           3D

 54 58  0  0  0  0  0  0  0  0999 V2000
   -6.0500   22.5710   -0.5460 C   0  0  0  0  0  0  0  0  0  0  0  0
   -6.9520   23.1430   -0.7430 H   0  0  0  0  0  0  0  0  0  0  0  0
   -6.0780   21.2870   -0.9750 N   0  0  0  0  0  0  0  0  0  0  0  0
   -4.9910   20.4820   -0.7740 C   0  0  0  0  0  0  0  0  0  0  0  0
   -3.8830   21.0490   -0.1180 C   0  0  0  0  0  0  0  0  0  0  0  0
   -3.8440   22.3730    0.3310 C   0  0  0  0  0  0  0  0  0  0  0  0
   -4.9800   23.1640    0.1030 C   0  0  0  0  0  0  0  0  0  0  0  0
   -2.6750   20.4750    0.2110 N   0  0  0  0  0  0  0  0  0  0  0  0
   -2.4440   19.5100   -0.0060 H   0  0  0  0  0  0  0  0  0  0  0  0
   -1.8760   21.3790    0.8470 C   0  0  0  0  0  0  0  0  0  0  0  0
   -0.8880   21.0870    1.1800 H   0  0  0  0  0  0  0  0  0  0  0  0
   -2.5620   22.5780    0.9460 C   0  0  0  0  0  0  0  0  0  0  0  0
   -2.0280   23.7860    1.5630 C   0  0  0  0  0  0  0  0  0  0  0  0
   -0.6190   23.7650    2.1290 C   0  0  0  0  0  0  0  0  0  0  0  0
    0.4050   24.1690    1.2740 N   0  0  0  0  0  0  0  0  0  0  0  0
    1.7900   24.0870    1.7360 C   0  0  0  0  0  0  0  0  0  0  0  0
    2.0270   25.0550    2.1930 H   0  0  0  0  0  0  0  0  0  0  0  0
    1.8840   23.3230    2.5150 H   0  0  0  0  0  0  0  0  0  0  0  0
    2.7630   23.7930    0.5890 C   0  0  0  0  0  0  0  0  0  0  0  0
    2.5460   22.8040    0.1700 H   0  0  0  0  0  0  0  0  0  0  0  0
    3.7900   23.7880    0.9650 H   0  0  0  0  0  0  0  0  0  0  0  0
    2.6400   24.7590   -0.5140 N   0  0  0  0  0  0  0  0  0  0  0  0
    1.3720   25.4850   -0.6180 C   0  0  0  0  0  0  0  0  0  0  0  0
    1.4920   26.4060   -0.0330 H   0  0  0  0  0  0  0  0  0  0  0  0
    1.1900   25.7790   -1.6570 H   0  0  0  0  0  0  0  0  0  0  0  0
    0.1830   24.6810   -0.0850 C   0  0  0  0  0  0  0  0  0  0  0  0
    0.0090   23.8060   -0.7230 H   0  0  0  0  0  0  0  0  0  0  0  0
   -0.7220   25.2950   -0.1080 H   0  0  0  0  0  0  0  0  0  0  0  0
    3.6450   25.0480   -1.4360 C   0  0  0  0  0  0  0  0  0  0  0  0
    4.8880   24.2430   -1.4120 C   0  0  0  0  0  0  0  0  0  0  0  0
   -2.6440   24.8430    1.6500 O   0  0  0  0  0  0  0  0  0  0  0  0
   -0.4740   23.3610    3.2770 O   0  0  0  0  0  0  0  0  0  0  0  0
    3.5740   25.9450   -2.2710 O   0  0  0  0  0  0  0  0  0  0  0  0
   -5.0660   24.4450    0.4780 F   0  0  0  0  0  0  0  0  0  0  0  0
    4.8520   22.8680   -1.6660 C   0  0  0  0  0  0  0  0  0  0  0  0
    3.9120   22.3660   -1.8780 H   0  0  0  0  0  0  0  0  0  0  0  0
    6.0400   22.1380   -1.6610 C   0  0  0  0  0  0  0  0  0  0  0  0
    6.0240   21.0680   -1.8540 H   0  0  0  0  0  0  0  0  0  0  0  0
    7.2550   22.7820   -1.4190 C   0  0  0  0  0  0  0  0  0  0  0  0
    8.1810   22.2110   -1.4190 H   0  0  0  0  0  0  0  0  0  0  0  0
    7.2890   24.1590   -1.1890 C   0  0  0  0  0  0  0  0  0  0  0  0
    8.2390   24.6570   -1.0150 H   0  0  0  0  0  0  0  0  0  0  0  0
    6.1050   24.8950   -1.1920 C   0  0  0  0  0  0  0  0  0  0  0  0
    6.1320   25.9690   -1.0250 H   0  0  0  0  0  0  0  0  0  0  0  0
   -4.9980   19.1360   -1.2130 N   0  0  0  0  0  0  0  0  0  0  0  0
   -6.0130   18.4780   -1.8490 C   0  0  0  0  0  0  0  0  0  0  0  0
   -6.9590   18.9420   -2.0920 H   0  0  0  0  0  0  0  0  0  0  0  0
   -5.6580   17.2390   -2.1030 N   0  0  0  0  0  0  0  0  0  0  0  0
   -4.3890   17.1730   -1.5960 C   0  0  0  0  0  0  0  0  0  0  0  0
   -3.9350   18.3050   -1.0420 N   0  0  0  0  0  0  0  0  0  0  0  0
   -3.5790   15.9410   -1.6570 C   0  0  0  0  0  0  0  0  0  0  0  0
   -4.1260   15.1380   -2.1600 H   0  0  0  0  0  0  0  0  0  0  0  0
   -3.3250   15.5990   -0.6490 H   0  0  0  0  0  0  0  0  0  0  0  0
   -2.6510   16.1180   -2.2080 H   0  0  0  0  0  0  0  0  0  0  0  0
  1  2  1  0  0  0  0
  1  3  1  0  0  0  0
  1  7  2  0  0  0  0
  3  4  2  0  0  0  0
  4  5  1  0  0  0  0
  4 45  1  0  0  0  0
  5  6  2  0  0  0  0
  5  8  1  0  0  0  0
  6  7  1  0  0  0  0
  6 12  1  0  0  0  0
  7 34  1  0  0  0  0
  8  9  1  0  0  0  0
  8 10  1  0  0  0  0
 10 11  1  0  0  0  0
 10 12  2  0  0  0  0
 12 13  1  0  0  0  0
 13 14  1  0  0  0  0
 13 31  2  0  0  0  0
 14 15  1  0  0  0  0
 14 32  2  0  0  0  0
 15 16  1  0  0  0  0
 15 26  1  0  0  0  0
 16 17  1  0  0  0  0
 16 18  1  0  0  0  0
 16 19  1  0  0  0  0
 19 20  1  0  0  0  0
 19 21  1  0  0  0  0
 19 22  1  0  0  0  0
 22 23  1  0  0  0  0
 22 29  1  0  0  0  0
 23 24  1  0  0  0  0
 23 25  1  0  0  0  0
 23 26  1  0  0  0  0
 26 27  1  0  0  0  0
 26 28  1  0  0  0  0
 29 30  1  0  0  0  0
 29 33  2  0  0  0  0
 30 35  1  0  0  0  0
 30 43  2  0  0  0  0
 35 36  1  0  0  0  0
 35 37  2  0  0  0  0
 37 38  1  0  0  0  0
 37 39  1  0  0  0  0
 39 40  1  0  0  0  0
 39 41  2  0  0  0  0
 41 42  1  0  0  0  0
 41 43  1  0  0  0  0
 43 44  1  0  0  0  0
 45 46  1  0  0  0  0
 45 50  1  0  0  0  0
 46 47  1  0  0  0  0
 46 48  2  0  0  0  0
 48 49  1  0  0  0  0
 49 50  2  0  0  0  0
 49 51  1  0  0  0  0
 51 52  1  0  0  0  0
 51 53  1  0  0  0  0
 51 54  1  0  0  0  0
M  END
>  <Activity>
9.8239

>  <AM1_dipole>
5.23039

>  <AM1_E>
-140901

>  <AM1_Eele>
-1.10943e+006

>  <AM1_HF>
59.5475

>  <AM1_HOMO>
-9.01081

>  <AM1_IP>
9.01081

>  <AM1_LUMO>
-1.23665

>  <diameter>
18

>  <petitjean>
0.5

>  <petitjeanSC>
1

>  <radius>
9

>  <VDistEq>
3.88578

>  <VDistMa>
9.85787

>  <weinerPath>
3748

>  <weinerPol>
58

>  <BCUT_PEOE_0>
-2.71188

>  <BCUT_PEOE_1>
-0.628722

>  <BCUT_PEOE_2>
0.648374

>  <BCUT_PEOE_3>
2.65031

>  <BCUT_SLOGP_0>
-2.86001

>  <BCUT_SLOGP_1>
-0.546318

>  <BCUT_SLOGP_2>
0.76106

>  <BCUT_SLOGP_3>
2.50327

>  <BCUT_SMR_0>
-2.43203

>  <BCUT_SMR_1>
-0.444167

>  <BCUT_SMR_2>
0.846505

>  <BCUT_SMR_3>
2.92024

>  <GCUT_PEOE_0>
-0.8521

>  <GCUT_PEOE_1>
-0.407743

>  <GCUT_PEOE_2>
0.0797765

>  <GCUT_PEOE_3>
2.69921

>  <GCUT_SLOGP_0>
-0.976506

>  <GCUT_SLOGP_1>
-0.356493

>  <GCUT_SLOGP_2>
0.159657

>  <GCUT_SLOGP_3>
2.67246

>  <GCUT_SMR_0>
-0.50892

>  <GCUT_SMR_1>
-0.215289

>  <GCUT_SMR_2>
0.210986

>  <GCUT_SMR_3>
2.96757

>  <a_aro>
20

>  <a_count>
54

>  <a_IC>
95.8771

>  <a_ICM>
1.7755

>  <a_nH>
20

>  <b_1rotN>
6

>  <b_1rotR>
0.157895

>  <b_ar>
21

>  <b_count>
58

>  <b_double>
3

>  <b_rotN>
6

>  <b_rotR>
0.157895

>  <b_single>
34

>  <b_triple>
0

>  <chi0v>
18.2332

>  <chi0v_C>
13.4472

>  <chi1v>
10.6592

>  <chi1v_C>
5.73803

>  <chiral>
0

>  <chiral_u>
0

>  <nmol>
1

>  <reactive>
0

>  <rings>
5

>  <Weight>
461.457

>  <a_heavy>
34

>  <a_nB>
0

>  <a_nBr>
0

>  <a_nC>
23

>  <a_nCl>
0

>  <a_nF>
1

>  <a_nI>
0

>  <a_nN>
7

>  <a_nO>
3

>  <a_nP>
0

>  <a_nS>
0

>  <b_heavy>
38

>  <chi0>
23.8193

>  <chi0_C>
15.2588

>  <chi1>
16.4356

>  <chi1_C>
7.54368

>  <FCharge>
0

>  <VAdjEq>
0.349836

>  <VAdjMa>
6.24793

>  <zagreb>
186

>  <balabanJ>
1.16487

>  <PEOE_PC+>
3.12513

>  <PEOE_PC->
-3.12513

>  <PEOE_RPC+>
0.0944282

>  <PEOE_RPC->
0.114238

>  <PEOE_VSA+0>
84.5199

>  <PEOE_VSA+1>
91.8433

>  <PEOE_VSA+2>
36.6929

>  <PEOE_VSA+3>
28.8304

>  <PEOE_VSA+4>
0

>  <PEOE_VSA+5>
34.3576

>  <PEOE_VSA+6>
0

>  <PEOE_VSA-0>
43.2575

>  <PEOE_VSA-1>
36.7647

>  <PEOE_VSA-2>
9.42104

>  <PEOE_VSA-3>
0

>  <PEOE_VSA-4>
23.2738

>  <PEOE_VSA-5>
40.7008

>  <PEOE_VSA-6>
0.136891

>  <PEOE_VSA_FHYD>
0.770895

>  <PEOE_VSA_FNEG>
0.357271

>  <PEOE_VSA_FPNEG>
0.149166

>  <PEOE_VSA_FPOL>
0.229105

>  <PEOE_VSA_FPOS>
0.642729

>  <PEOE_VSA_FPPOS>
0.0799388

>  <PEOE_VSA_HYD>
331.33

>  <PEOE_VSA_NEG>
153.555

>  <PEOE_VSA_PNEG>
64.1114

>  <PEOE_VSA_POL>
98.469

>  <PEOE_VSA_POS>
276.244

>  <PEOE_VSA_PPOS>
34.3576

>  <PC+>
6.402

>  <PC->
-6.402

>  <Q_PC+>
6.402

>  <Q_PC->
-6.402

>  <Q_RPC+>
0.102468

>  <Q_RPC->
0.110434

>  <Q_VSA_FHYD>
0.543135

>  <Q_VSA_FNEG>
0.373021

>  <Q_VSA_FPNEG>
0.182022

>  <Q_VSA_FPOL>
0.456865

>  <Q_VSA_FPOS>
0.626979

>  <Q_VSA_FPPOS>
0.274843

>  <Q_VSA_HYD>
233.439

>  <Q_VSA_NEG>
160.324

>  <Q_VSA_PNEG>
78.2329

>  <Q_VSA_POL>
196.36

>  <Q_VSA_POS>
269.475

>  <Q_VSA_PPOS>
118.127

>  <RPC+>
0.102468

>  <RPC->
0.110434

>  <lip_acc>
10

>  <lip_don>
1

>  <lip_druglike>
1

>  <lip_violation>
0

>  <opr_brigid>
27

>  <opr_leadlike>
0

>  <opr_nring>
5

>  <opr_nrot>
6

>  <opr_violation>
3

>  <E>
110.667

>  <E_ang>
7.47879

>  <E_ele>
41.0164

>  <E_nb>
91.7629

>  <E_oop>
0.0701573

>  <E_sol>
-22.7137

>  <E_stb>
0.911191

>  <E_str>
6.38855

>  <E_strain>
0.00606429

>  <E_tor>
4.05516

>  <E_vdw>
50.7466

>  <E_rele>
0

>  <E_rnb>
1.13687e-013

>  <E_rsol>
1.13687e-013

>  <E_rvdw>
0

>  <Kier1>
25.6413

>  <Kier2>
11.1709

>  <Kier3>
5.35402

>  <KierA1>
17.2963

>  <KierA2>
7.43764

>  <KierA3>
3.53212

>  <KierFlex>
3.78363

>  <logS>
-3.68635

>  <MNDO_dipole>
5.65702

>  <MNDO_E>
-141061

>  <MNDO_Eele>
-1.10376e+006

>  <MNDO_HF>
-13.3806

>  <MNDO_HOMO>
-9.14864

>  <MNDO_IP>
9.14864

>  <MNDO_LUMO>
-1.33497

>  <apol>
64.4789

>  <bpol>
35.1811

>  <mr>
12.1911

>  <dipole>
1.38597

>  <dipoleX>
0.855524

>  <dipoleY>
-1.08482

>  <dipoleZ>
-0.110317

>  <pmi>
12195.8

>  <pmiX>
8117.64

>  <pmiY>
3191.57

>  <pmiZ>
886.577

>  <rgyr>
5.1409

>  <a_acc>
6

>  <a_acid>
0

>  <a_base>
0

>  <a_don>
1

>  <a_hyd>
18

>  <vsa_acc>
61.487

>  <vsa_acid>
0

>  <vsa_base>
0

>  <vsa_don>
5.68258

>  <vsa_hyd>
264.503

>  <vsa_other>
81.5292

>  <vsa_pol>
67.1695

>  <PM3_dipole>
5.43579

>  <PM3_E>
-126555

>  <PM3_Eele>
-1.08162e+006

>  <PM3_HF>
-18.8968

>  <PM3_HOMO>
-9.1622

>  <PM3_IP>
9.1622

>  <PM3_LUMO>
-1.44578

>  <SlogP>
1.75842

>  <SlogP_VSA0>
0

>  <SlogP_VSA1>
74.4644

>  <SlogP_VSA2>
49.7688

>  <SlogP_VSA3>
73.7583

>  <SlogP_VSA4>
56.4235

>  <SlogP_VSA5>
0

>  <SlogP_VSA6>
0

>  <SlogP_VSA7>
146.475

>  <SlogP_VSA8>
0

>  <SlogP_VSA9>
48.2861

>  <SMR>
11.8962

>  <SMR_VSA0>
71.5866

>  <SMR_VSA1>
73.2194

>  <SMR_VSA2>
25.9065

>  <SMR_VSA3>
8.69907

>  <SMR_VSA4>
7.04502

>  <SMR_VSA5>
139.43

>  <SMR_VSA6>
89.9635

>  <SMR_VSA7>
33.326

>  <ASA>
724.286

>  <ASA+>
314.139

>  <ASA->
240.408

>  <ASA_H>
529.708

>  <ASA_P>
194.578

>  <CASA+>
2011.12

>  <CASA->
1539.1

>  <DASA>
73.7307

>  <DCASA>
472.024

>  <FASA+>
0.433722

>  <FASA->
0.331925

>  <FASA_H>
0.731352

>  <FASA_P>
0.268648

>  <FCASA+>
2.77669

>  <FCASA->
2.12498

>  <VSA>
447.076

>  <TPSA>
117.08

>  <density>
0.802402

>  <vdw_area>
429.799

>  <vdw_vol>
575.095

>  <vsurf_A>
3.10785

>  <vsurf_CP>
0.0811092

>  <vsurf_CW1>
2.67008

>  <vsurf_CW2>
2.18576

>  <vsurf_CW3>
1.63185

>  <vsurf_CW4>
0.774652

>  <vsurf_CW5>
0.363546

>  <vsurf_CW6>
0.133688

>  <vsurf_CW7>
0.023883

>  <vsurf_CW8>
0.0100133

>  <vsurf_D1>
960.375

>  <vsurf_D2>
574.125

>  <vsurf_D3>
431.75

>  <vsurf_D4>
359.875

>  <vsurf_D5>
298.625

>  <vsurf_D6>
228.25

>  <vsurf_D7>
137.625

>  <vsurf_D8>
90.75

>  <vsurf_DD12>
3.20156

>  <vsurf_DD13>
0.5

>  <vsurf_DD23>
3.4641

>  <vsurf_DW12>
0.707107

>  <vsurf_DW13>
0.707107

>  <vsurf_DW23>
1.41421

>  <vsurf_EDmin1>
-2.80865

>  <vsurf_EDmin2>
-2.79843

>  <vsurf_EDmin3>
-2.79662

>  <vsurf_EWmin1>
-7.70439

>  <vsurf_EWmin2>
-7.11821

>  <vsurf_EWmin3>
-6.9999

>  <vsurf_G>
1.4125

>  <vsurf_HB1>
455

>  <vsurf_HB2>
580.25

>  <vsurf_HB3>
495.625

>  <vsurf_HB4>
200.375

>  <vsurf_HB5>
74.5

>  <vsurf_HB6>
24.375

>  <vsurf_HB7>
5.125

>  <vsurf_HB8>
1.625

>  <vsurf_HL1>
0.179213

>  <vsurf_HL2>
0.0680792

>  <vsurf_ID1>
1.58082

>  <vsurf_ID2>
1.48986

>  <vsurf_ID3>
1.66016

>  <vsurf_ID4>
2.00683

>  <vsurf_ID5>
2.42568

>  <vsurf_ID6>
2.51999

>  <vsurf_ID7>
1.31473

>  <vsurf_ID8>
0.722206

>  <vsurf_IW1>
0.449776

>  <vsurf_IW2>
1.18002

>  <vsurf_IW3>
1.69953

>  <vsurf_IW4>
1.8572

>  <vsurf_IW5>
1.752

>  <vsurf_IW6>
2.09646

>  <vsurf_IW7>
3.47815

>  <vsurf_IW8>
4.7077

>  <vsurf_R>
1.43749

>  <vsurf_S>
658.612

>  <vsurf_V>
946.75

>  <vsurf_W1>
1675.38

>  <vsurf_W2>
1070

>  <vsurf_W3>
598.875

>  <vsurf_W4>
210

>  <vsurf_W5>
77.375

>  <vsurf_W6>
24.5

>  <vsurf_W7>
5.125

>  <vsurf_W8>
1.625

>  <vsurf_Wp1>
1220.38

>  <vsurf_Wp2>
489.75

>  <vsurf_Wp3>
103.25

>  <vsurf_Wp4>
9.625

>  <vsurf_Wp5>
2.875

>  <vsurf_Wp6>
0.125

>  <vsurf_Wp7>
0

>  <vsurf_Wp8>
0

>  <dens>
1.12277

>  <glob>
0.0578167

>  <std_dim1>
4.70238

>  <std_dim2>
2.38385

>  <std_dim3>
1.13069

>  <vol>
411

>  <logP(o/w)>
0.84259

$$$$
D17.cdx
  MOE2008           3D

 54 58  0  0  0  0  0  0  0  0999 V2000
   -5.9680   17.0210   -0.4160 C   0  0  0  0  0  0  0  0  0  0  0  0
   -6.8570   17.6240   -0.5720 H   0  0  0  0  0  0  0  0  0  0  0  0
   -6.0020   15.7890   -0.9750 N   0  0  0  0  0  0  0  0  0  0  0  0
   -4.9340   14.9460   -0.8400 C   0  0  0  0  0  0  0  0  0  0  0  0
   -3.8330   15.4310   -0.1050 C   0  0  0  0  0  0  0  0  0  0  0  0
   -3.7850   16.7000    0.4780 C   0  0  0  0  0  0  0  0  0  0  0  0
   -4.9050   17.5280    0.3110 C   0  0  0  0  0  0  0  0  0  0  0  0
   -2.6380   14.8100    0.1870 N   0  0  0  0  0  0  0  0  0  0  0  0
   -2.4170   13.8680   -0.1240 H   0  0  0  0  0  0  0  0  0  0  0  0
   -1.8410   15.6310    0.9280 C   0  0  0  0  0  0  0  0  0  0  0  0
   -0.8630   15.2920    1.2470 H   0  0  0  0  0  0  0  0  0  0  0  0
   -2.5140   16.8220    1.1360 C   0  0  0  0  0  0  0  0  0  0  0  0
   -1.9790   17.9510    1.8870 C   0  0  0  0  0  0  0  0  0  0  0  0
   -0.5770   17.8590    2.4620 C   0  0  0  0  0  0  0  0  0  0  0  0
    0.4580   18.3550    1.6720 N   0  0  0  0  0  0  0  0  0  0  0  0
    1.8380   18.2160    2.1390 C   0  0  0  0  0  0  0  0  0  0  0  0
    2.0690   19.1220    2.7130 H   0  0  0  0  0  0  0  0  0  0  0  0
    1.9200   17.3630    2.8220 H   0  0  0  0  0  0  0  0  0  0  0  0
    2.8250   18.0600    0.9790 C   0  0  0  0  0  0  0  0  0  0  0  0
    2.6140   17.1290    0.4410 H   0  0  0  0  0  0  0  0  0  0  0  0
    3.8480   18.0080    1.3660 H   0  0  0  0  0  0  0  0  0  0  0  0
    2.7180   19.1520   -0.0010 N   0  0  0  0  0  0  0  0  0  0  0  0
    1.4500   19.8840   -0.0370 C   0  0  0  0  0  0  0  0  0  0  0  0
    1.5600   20.7300    0.6530 H   0  0  0  0  0  0  0  0  0  0  0  0
    1.2830   20.2980   -1.0380 H   0  0  0  0  0  0  0  0  0  0  0  0
    0.2560   19.0220    0.3790 C   0  0  0  0  0  0  0  0  0  0  0  0
    0.0930   18.2270   -0.3590 H   0  0  0  0  0  0  0  0  0  0  0  0
   -0.6500   19.6340    0.4140 H   0  0  0  0  0  0  0  0  0  0  0  0
    3.7370   19.5500   -0.8660 C   0  0  0  0  0  0  0  0  0  0  0  0
    4.9790   18.7470   -0.9210 C   0  0  0  0  0  0  0  0  0  0  0  0
   -2.5900   18.9970    2.0800 O   0  0  0  0  0  0  0  0  0  0  0  0
   -0.4470   17.3250    3.5580 O   0  0  0  0  0  0  0  0  0  0  0  0
    3.6780   20.5420   -1.5860 O   0  0  0  0  0  0  0  0  0  0  0  0
   -4.9830   18.7650    0.8140 F   0  0  0  0  0  0  0  0  0  0  0  0
    4.9470   17.4120   -1.3390 C   0  0  0  0  0  0  0  0  0  0  0  0
    4.0110   16.9410   -1.6240 H   0  0  0  0  0  0  0  0  0  0  0  0
    6.1360   16.6850   -1.4050 C   0  0  0  0  0  0  0  0  0  0  0  0
    6.1230   15.6460   -1.7260 H   0  0  0  0  0  0  0  0  0  0  0  0
    7.3470   17.2930   -1.0700 C   0  0  0  0  0  0  0  0  0  0  0  0
    8.2720   16.7250   -1.1260 H   0  0  0  0  0  0  0  0  0  0  0  0
    7.3770   18.6320   -0.6760 C   0  0  0  0  0  0  0  0  0  0  0  0
    8.3250   19.1040   -0.4290 H   0  0  0  0  0  0  0  0  0  0  0  0
    6.1930   19.3660   -0.6070 C   0  0  0  0  0  0  0  0  0  0  0  0
    6.2180   20.4120   -0.3120 H   0  0  0  0  0  0  0  0  0  0  0  0
   -4.9370   13.6430   -1.4130 N   0  0  0  0  0  0  0  0  0  0  0  0
   -5.9220   13.0090   -2.1480 C   0  0  0  0  0  0  0  0  0  0  0  0
   -5.5050   11.8030   -2.4840 N   0  0  0  0  0  0  0  0  0  0  0  0
   -4.2620   11.7330   -1.9380 C   0  0  0  0  0  0  0  0  0  0  0  0
   -3.6270   10.8620   -2.0240 H   0  0  0  0  0  0  0  0  0  0  0  0
   -3.8590   12.8170   -1.2790 N   0  0  0  0  0  0  0  0  0  0  0  0
   -7.2370   13.5960   -2.4980 C   0  0  0  0  0  0  0  0  0  0  0  0
   -7.8270   12.8810   -3.0820 H   0  0  0  0  0  0  0  0  0  0  0  0
   -7.1150   14.4970   -3.1070 H   0  0  0  0  0  0  0  0  0  0  0  0
   -7.8110   13.8400   -1.5990 H   0  0  0  0  0  0  0  0  0  0  0  0
  1  2  1  0  0  0  0
  1  3  1  0  0  0  0
  1  7  2  0  0  0  0
  3  4  2  0  0  0  0
  4  5  1  0  0  0  0
  4 45  1  0  0  0  0
  5  6  2  0  0  0  0
  5  8  1  0  0  0  0
  6  7  1  0  0  0  0
  6 12  1  0  0  0  0
  7 34  1  0  0  0  0
  8  9  1  0  0  0  0
  8 10  1  0  0  0  0
 10 11  1  0  0  0  0
 10 12  2  0  0  0  0
 12 13  1  0  0  0  0
 13 14  1  0  0  0  0
 13 31  2  0  0  0  0
 14 15  1  0  0  0  0
 14 32  2  0  0  0  0
 15 16  1  0  0  0  0
 15 26  1  0  0  0  0
 16 17  1  0  0  0  0
 16 18  1  0  0  0  0
 16 19  1  0  0  0  0
 19 20  1  0  0  0  0
 19 21  1  0  0  0  0
 19 22  1  0  0  0  0
 22 23  1  0  0  0  0
 22 29  1  0  0  0  0
 23 24  1  0  0  0  0
 23 25  1  0  0  0  0
 23 26  1  0  0  0  0
 26 27  1  0  0  0  0
 26 28  1  0  0  0  0
 29 30  1  0  0  0  0
 29 33  2  0  0  0  0
 30 35  1  0  0  0  0
 30 43  2  0  0  0  0
 35 36  1  0  0  0  0
 35 37  2  0  0  0  0
 37 38  1  0  0  0  0
 37 39  1  0  0  0  0
 39 40  1  0  0  0  0
 39 41  2  0  0  0  0
 41 42  1  0  0  0  0
 41 43  1  0  0  0  0
 43 44  1  0  0  0  0
 45 46  1  0  0  0  0
 45 50  1  0  0  0  0
 46 47  2  0  0  0  0
 46 51  1  0  0  0  0
 47 48  1  0  0  0  0
 48 49  1  0  0  0  0
 48 50  2  0  0  0  0
 51 52  1  0  0  0  0
 51 53  1  0  0  0  0
 51 54  1  0  0  0  0
M  END
>  <Activity>
8.2218

>  <AM1_dipole>
4.23143

>  <AM1_E>
-140900

>  <AM1_Eele>
-1.11447e+006

>  <AM1_HF>
60.5492

>  <AM1_HOMO>
-9.045

>  <AM1_IP>
9.045

>  <AM1_LUMO>
-1.21841

>  <diameter>
17

>  <petitjean>
0.470588

>  <petitjeanSC>
0.888889

>  <radius>
9

>  <VDistEq>
3.86578

>  <VDistMa>
9.85919

>  <weinerPath>
3720

>  <weinerPol>
59

>  <BCUT_PEOE_0>
-2.71188

>  <BCUT_PEOE_1>
-0.619692

>  <BCUT_PEOE_2>
0.622854

>  <BCUT_PEOE_3>
2.65032

>  <BCUT_SLOGP_0>
-2.86001

>  <BCUT_SLOGP_1>
-0.543032

>  <BCUT_SLOGP_2>
0.711239

>  <BCUT_SLOGP_3>
2.50328

>  <BCUT_SMR_0>
-2.43203

>  <BCUT_SMR_1>
-0.425344

>  <BCUT_SMR_2>
0.808629

>  <BCUT_SMR_3>
2.92024

>  <GCUT_PEOE_0>
-0.852129

>  <GCUT_PEOE_1>
-0.408197

>  <GCUT_PEOE_2>
0.076518

>  <GCUT_PEOE_3>
2.70531

>  <GCUT_SLOGP_0>
-0.976507

>  <GCUT_SLOGP_1>
-0.360185

>  <GCUT_SLOGP_2>
0.146613

>  <GCUT_SLOGP_3>
2.68028

>  <GCUT_SMR_0>
-0.508927

>  <GCUT_SMR_1>
-0.209733

>  <GCUT_SMR_2>
0.207063

>  <GCUT_SMR_3>
2.97386

>  <a_aro>
20

>  <a_count>
54

>  <a_IC>
95.8771

>  <a_ICM>
1.7755

>  <a_nH>
20

>  <b_1rotN>
6

>  <b_1rotR>
0.157895

>  <b_ar>
21

>  <b_count>
58

>  <b_double>
3

>  <b_rotN>
6

>  <b_rotR>
0.157895

>  <b_single>
34

>  <b_triple>
0

>  <chi0v>
18.2332

>  <chi0v_C>
13.4472

>  <chi1v>
10.6592

>  <chi1v_C>
5.73803

>  <chiral>
0

>  <chiral_u>
0

>  <nmol>
1

>  <reactive>
0

>  <rings>
5

>  <Weight>
461.457

>  <a_heavy>
34

>  <a_nB>
0

>  <a_nBr>
0

>  <a_nC>
23

>  <a_nCl>
0

>  <a_nF>
1

>  <a_nI>
0

>  <a_nN>
7

>  <a_nO>
3

>  <a_nP>
0

>  <a_nS>
0

>  <b_heavy>
38

>  <chi0>
23.8193

>  <chi0_C>
15.2588

>  <chi1>
16.4524

>  <chi1_C>
7.54368

>  <FCharge>
0

>  <VAdjEq>
0.349836

>  <VAdjMa>
6.24793

>  <zagreb>
186

>  <balabanJ>
1.17258

>  <PEOE_PC+>
3.12704

>  <PEOE_PC->
-3.12704

>  <PEOE_RPC+>
0.0943706

>  <PEOE_RPC->
0.114168

>  <PEOE_VSA+0>
84.5199

>  <PEOE_VSA+1>
91.8433

>  <PEOE_VSA+2>
36.6929

>  <PEOE_VSA+3>
28.8304

>  <PEOE_VSA+4>
0

>  <PEOE_VSA+5>
34.3576

>  <PEOE_VSA+6>
0

>  <PEOE_VSA-0>
43.2575

>  <PEOE_VSA-1>
36.7647

>  <PEOE_VSA-2>
0

>  <PEOE_VSA-3>
9.42104

>  <PEOE_VSA-4>
23.2738

>  <PEOE_VSA-5>
40.7008

>  <PEOE_VSA-6>
0.136891

>  <PEOE_VSA_FHYD>
0.770895

>  <PEOE_VSA_FNEG>
0.357271

>  <PEOE_VSA_FPNEG>
0.149166

>  <PEOE_VSA_FPOL>
0.229105

>  <PEOE_VSA_FPOS>
0.642729

>  <PEOE_VSA_FPPOS>
0.0799388

>  <PEOE_VSA_HYD>
331.33

>  <PEOE_VSA_NEG>
153.555

>  <PEOE_VSA_PNEG>
64.1114

>  <PEOE_VSA_POL>
98.469

>  <PEOE_VSA_POS>
276.244

>  <PEOE_VSA_PPOS>
34.3576

>  <PC+>
6.402

>  <PC->
-6.402

>  <Q_PC+>
6.402

>  <Q_PC->
-6.402

>  <Q_RPC+>
0.102468

>  <Q_RPC->
0.110434

>  <Q_VSA_FHYD>
0.519761

>  <Q_VSA_FNEG>
0.373021

>  <Q_VSA_FPNEG>
0.182022

>  <Q_VSA_FPOL>
0.480239

>  <Q_VSA_FPOS>
0.626979

>  <Q_VSA_FPPOS>
0.298217

>  <Q_VSA_HYD>
223.393

>  <Q_VSA_NEG>
160.324

>  <Q_VSA_PNEG>
78.2329

>  <Q_VSA_POL>
206.406

>  <Q_VSA_POS>
269.475

>  <Q_VSA_PPOS>
128.173

>  <RPC+>
0.102468

>  <RPC->
0.110434

>  <lip_acc>
10

>  <lip_don>
1

>  <lip_druglike>
1

>  <lip_violation>
0

>  <opr_brigid>
27

>  <opr_leadlike>
0

>  <opr_nring>
5

>  <opr_nrot>
6

>  <opr_violation>
3

>  <E>
112.855

>  <E_ang>
8.23262

>  <E_ele>
40.5678

>  <E_nb>
92.8058

>  <E_oop>
0.0667337

>  <E_sol>
-19.1147

>  <E_stb>
0.806559

>  <E_str>
6.8886

>  <E_strain>
0.0041865

>  <E_tor>
4.05476

>  <E_vdw>
52.2381

>  <E_rele>
0

>  <E_rnb>
2.84217e-014

>  <E_rsol>
2.84217e-014

>  <E_rvdw>
0

>  <Kier1>
25.6413

>  <Kier2>
11.1709

>  <Kier3>
5.21762

>  <KierA1>
17.2963

>  <KierA2>
7.43764

>  <KierA3>
3.44213

>  <KierFlex>
3.78363

>  <logS>
-3.68635

>  <MNDO_dipole>
5.26686

>  <MNDO_E>
-141058

>  <MNDO_Eele>
-1.10834e+006

>  <MNDO_HF>
-10.3415

>  <MNDO_HOMO>
-9.26655

>  <MNDO_IP>
9.26655

>  <MNDO_LUMO>
-1.30349

>  <apol>
64.4789

>  <bpol>
35.1811

>  <mr>
12.1952

>  <dipole>
1.1952

>  <dipoleX>
0.676129

>  <dipoleY>
-0.95375

>  <dipoleZ>
-0.248419

>  <pmi>
12304.1

>  <pmiX>
8639.02

>  <pmiY>
2610.99

>  <pmiZ>
1054.11

>  <rgyr>
5.16368

>  <a_acc>
6

>  <a_acid>
0

>  <a_base>
0

>  <a_don>
1

>  <a_hyd>
18

>  <vsa_acc>
61.487

>  <vsa_acid>
0

>  <vsa_base>
0

>  <vsa_don>
5.68258

>  <vsa_hyd>
264.503

>  <vsa_other>
81.5292

>  <vsa_pol>
67.1695

>  <PM3_dipole>
4.04021

>  <PM3_E>
-126553

>  <PM3_Eele>
-1.08694e+006

>  <PM3_HF>
-17.6045

>  <PM3_HOMO>
-9.17041

>  <PM3_IP>
9.17041

>  <PM3_LUMO>
-1.42561

>  <SlogP>
1.75842

>  <SlogP_VSA0>
0

>  <SlogP_VSA1>
74.4644

>  <SlogP_VSA2>
49.7688

>  <SlogP_VSA3>
73.7583

>  <SlogP_VSA4>
56.4235

>  <SlogP_VSA5>
0

>  <SlogP_VSA6>
0

>  <SlogP_VSA7>
146.475

>  <SlogP_VSA8>
0

>  <SlogP_VSA9>
48.2861

>  <SMR>
11.8962

>  <SMR_VSA0>
71.5866

>  <SMR_VSA1>
73.2194

>  <SMR_VSA2>
25.9065

>  <SMR_VSA3>
8.69907

>  <SMR_VSA4>
7.04502

>  <SMR_VSA5>
139.43

>  <SMR_VSA6>
89.9635

>  <SMR_VSA7>
33.326

>  <ASA>
710.533

>  <ASA+>
322.925

>  <ASA->
229.678

>  <ASA_H>
497.37

>  <ASA_P>
213.163

>  <CASA+>
2067.37

>  <CASA->
1470.4

>  <DASA>
93.2469

>  <DCASA>
596.967

>  <FASA+>
0.454483

>  <FASA->
0.323248

>  <FASA_H>
0.699996

>  <FASA_P>
0.300004

>  <FCASA+>
2.9096

>  <FCASA->
2.06943

>  <VSA>
444.556

>  <TPSA>
117.08

>  <density>
0.802402

>  <vdw_area>
429.799

>  <vdw_vol>
575.095

>  <vsurf_A>
2.43313

>  <vsurf_CP>
0.0838824

>  <vsurf_CW1>
2.67705

>  <vsurf_CW2>
2.28111

>  <vsurf_CW3>
1.64658

>  <vsurf_CW4>
0.754306

>  <vsurf_CW5>
0.34545

>  <vsurf_CW6>
0.123479

>  <vsurf_CW7>
0.0203029

>  <vsurf_CW8>
0.00752834

>  <vsurf_D1>
961.25

>  <vsurf_D2>
579.125

>  <vsurf_D3>
433.125

>  <vsurf_D4>
354

>  <vsurf_D5>
291

>  <vsurf_D6>
227.125

>  <vsurf_D7>
141

>  <vsurf_D8>
89.125

>  <vsurf_DD12>
2.5

>  <vsurf_DD13>
0.5

>  <vsurf_DD23>
2.82843

>  <vsurf_DW12>
0.707107

>  <vsurf_DW13>
0.5

>  <vsurf_DW23>
0.5

>  <vsurf_EDmin1>
-2.77378

>  <vsurf_EDmin2>
-2.74581

>  <vsurf_EDmin3>
-2.73534

>  <vsurf_EWmin1>
-7.08402

>  <vsurf_EWmin2>
-7.00839

>  <vsurf_EWmin3>
-6.99181

>  <vsurf_G>
1.39651

>  <vsurf_HB1>
440.375

>  <vsurf_HB2>
558.625

>  <vsurf_HB3>
472

>  <vsurf_HB4>
192

>  <vsurf_HB5>
72.25

>  <vsurf_HB6>
21.5

>  <vsurf_HB7>
4.25

>  <vsurf_HB8>
1.5

>  <vsurf_HL1>
0.171717

>  <vsurf_HL2>
0.0607345

>  <vsurf_ID1>
1.40046

>  <vsurf_ID2>
1.28658

>  <vsurf_ID3>
1.38953

>  <vsurf_ID4>
1.73529

>  <vsurf_ID5>
2.24828

>  <vsurf_ID6>
2.3783

>  <vsurf_ID7>
1.33021

>  <vsurf_ID8>
0.950633

>  <vsurf_IW1>
0.399236

>  <vsurf_IW2>
0.944243

>  <vsurf_IW3>
1.32568

>  <vsurf_IW4>
1.44097

>  <vsurf_IW5>
1.32689

>  <vsurf_IW6>
1.59339

>  <vsurf_IW7>
3.70353

>  <vsurf_IW8>
4.81318

>  <vsurf_R>
1.45081

>  <vsurf_S>
648.344

>  <vsurf_V>
940.625

>  <vsurf_W1>
1656.38

>  <vsurf_W2>
1065.5

>  <vsurf_W3>
580.625

>  <vsurf_W4>
201.5

>  <vsurf_W5>
74.375

>  <vsurf_W6>
21.5

>  <vsurf_W7>
4.25

>  <vsurf_W8>
1.5

>  <vsurf_Wp1>
1216

>  <vsurf_Wp2>
506.875

>  <vsurf_Wp3>
108.625

>  <vsurf_Wp4>
9.5

>  <vsurf_Wp5>
2.125

>  <vsurf_Wp6>
0

>  <vsurf_Wp7>
0

>  <vsurf_Wp8>
0

>  <dens>
1.1286

>  <glob>
0.0576837

>  <std_dim1>
4.91801

>  <std_dim2>
2.06602

>  <std_dim3>
1.18118

>  <vol>
408.875

>  <logP(o/w)>
0.84259

$$$$
D17.cdx
  MOE2008           3D

 52 56  0  0  0  0  0  0  0  0999 V2000
   -5.0610   12.1440   -0.3800 C   0  0  0  0  0  0  0  0  0  0  0  0
   -5.7320   12.9100   -0.7540 H   0  0  0  0  0  0  0  0  0  0  0  0
   -5.4970   10.8760   -0.5110 N   0  0  0  0  0  0  0  0  0  0  0  0
   -4.7460    9.8140   -0.0680 C   0  0  0  0  0  0  0  0  0  0  0  0
   -3.4740   10.1280    0.4780 C   0  0  0  0  0  0  0  0  0  0  0  0
   -3.0210   11.4550    0.6270 C   0  0  0  0  0  0  0  0  0  0  0  0
   -3.8540   12.4930    0.1840 C   0  0  0  0  0  0  0  0  0  0  0  0
   -2.4310    9.3340    0.9080 N   0  0  0  0  0  0  0  0  0  0  0  0
   -2.4040    8.3250    0.8820 H   0  0  0  0  0  0  0  0  0  0  0  0
   -1.3930   10.0910    1.3800 C   0  0  0  0  0  0  0  0  0  0  0  0
   -0.5100    9.6080    1.7800 H   0  0  0  0  0  0  0  0  0  0  0  0
   -1.7170   11.4230    1.2300 C   0  0  0  0  0  0  0  0  0  0  0  0
   -0.8570   12.5420    1.6070 C   0  0  0  0  0  0  0  0  0  0  0  0
    0.5930   12.2950    1.9790 C   0  0  0  0  0  0  0  0  0  0  0  0
    1.5410   12.4980    0.9800 N   0  0  0  0  0  0  0  0  0  0  0  0
    2.9610   12.2970    1.2690 C   0  0  0  0  0  0  0  0  0  0  0  0
    3.1200   12.0650    2.3260 H   0  0  0  0  0  0  0  0  0  0  0  0
    3.2810   11.4240    0.6860 H   0  0  0  0  0  0  0  0  0  0  0  0
    3.7960   13.5240    0.8710 C   0  0  0  0  0  0  0  0  0  0  0  0
    4.8540   13.2790    0.9850 H   0  0  0  0  0  0  0  0  0  0  0  0
    3.5650   14.3670    1.5330 H   0  0  0  0  0  0  0  0  0  0  0  0
    3.4820   13.9610   -0.5000 N   0  0  0  0  0  0  0  0  0  0  0  0
    2.0540   14.1570   -0.7750 C   0  0  0  0  0  0  0  0  0  0  0  0
    1.7310   15.0130   -0.1710 H   0  0  0  0  0  0  0  0  0  0  0  0
    1.8820   14.4110   -1.8260 H   0  0  0  0  0  0  0  0  0  0  0  0
    1.2420   12.9140   -0.3990 C   0  0  0  0  0  0  0  0  0  0  0  0
    1.5160   12.0740   -1.0480 H   0  0  0  0  0  0  0  0  0  0  0  0
    0.1780   13.1090   -0.5450 H   0  0  0  0  0  0  0  0  0  0  0  0
    4.4030   14.1860   -1.5190 C   0  0  0  0  0  0  0  0  0  0  0  0
    5.8460   14.1870   -1.1920 C   0  0  0  0  0  0  0  0  0  0  0  0
   -1.2260   13.7130    1.6220 O   0  0  0  0  0  0  0  0  0  0  0  0
    0.8350   11.9430    3.1290 O   0  0  0  0  0  0  0  0  0  0  0  0
    4.0990   14.3880   -2.6910 O   0  0  0  0  0  0  0  0  0  0  0  0
   -3.5150   13.7850    0.2560 F   0  0  0  0  0  0  0  0  0  0  0  0
    6.6870   13.2830   -1.8480 C   0  0  0  0  0  0  0  0  0  0  0  0
    6.2810   12.5780   -2.5690 H   0  0  0  0  0  0  0  0  0  0  0  0
    8.0550   13.2950   -1.5740 C   0  0  0  0  0  0  0  0  0  0  0  0
    8.7170   12.5940   -2.0770 H   0  0  0  0  0  0  0  0  0  0  0  0
    8.5760   14.2120   -0.6590 C   0  0  0  0  0  0  0  0  0  0  0  0
    9.6430   14.2210   -0.4500 H   0  0  0  0  0  0  0  0  0  0  0  0
    7.7350   15.1280   -0.0220 C   0  0  0  0  0  0  0  0  0  0  0  0
    8.1490   15.8480    0.6790 H   0  0  0  0  0  0  0  0  0  0  0  0
    6.3670   15.1230   -0.2930 C   0  0  0  0  0  0  0  0  0  0  0  0
    5.7170   15.8480    0.1900 H   0  0  0  0  0  0  0  0  0  0  0  0
   -5.3140    8.5120   -0.2050 N   0  0  0  0  0  0  0  0  0  0  0  0
   -6.4580    8.2290   -0.9240 C   0  0  0  0  0  0  0  0  0  0  0  0
   -7.0180    8.9990   -1.4360 H   0  0  0  0  0  0  0  0  0  0  0  0
   -6.6360    6.8700   -0.8370 C   0  0  0  0  0  0  0  0  0  0  0  0
   -7.4180    6.2730   -1.2860 H   0  0  0  0  0  0  0  0  0  0  0  0
   -5.6610    6.3060   -0.0640 N   0  0  0  0  0  0  0  0  0  0  0  0
   -4.9040    7.3120    0.3200 C   0  0  0  0  0  0  0  0  0  0  0  0
   -4.0790    7.2000    1.0050 H   0  0  0  0  0  0  0  0  0  0  0  0
  1  2  1  0  0  0  0
  1  3  1  0  0  0  0
  1  7  2  0  0  0  0
  3  4  2  0  0  0  0
  4  5  1  0  0  0  0
  4 45  1  0  0  0  0
  5  6  2  0  0  0  0
  5  8  1  0  0  0  0
  6  7  1  0  0  0  0
  6 12  1  0  0  0  0
  7 34  1  0  0  0  0
  8  9  1  0  0  0  0
  8 10  1  0  0  0  0
 10 11  1  0  0  0  0
 10 12  2  0  0  0  0
 12 13  1  0  0  0  0
 13 14  1  0  0  0  0
 13 31  2  0  0  0  0
 14 15  1  0  0  0  0
 14 32  2  0  0  0  0
 15 16  1  0  0  0  0
 15 26  1  0  0  0  0
 16 17  1  0  0  0  0
 16 18  1  0  0  0  0
 16 19  1  0  0  0  0
 19 20  1  0  0  0  0
 19 21  1  0  0  0  0
 19 22  1  0  0  0  0
 22 23  1  0  0  0  0
 22 29  1  0  0  0  0
 23 24  1  0  0  0  0
 23 25  1  0  0  0  0
 23 26  1  0  0  0  0
 26 27  1  0  0  0  0
 26 28  1  0  0  0  0
 29 30  1  0  0  0  0
 29 33  2  0  0  0  0
 30 35  1  0  0  0  0
 30 43  2  0  0  0  0
 35 36  1  0  0  0  0
 35 37  2  0  0  0  0
 37 38  1  0  0  0  0
 37 39  1  0  0  0  0
 39 40  1  0  0  0  0
 39 41  2  0  0  0  0
 41 42  1  0  0  0  0
 41 43  1  0  0  0  0
 43 44  1  0  0  0  0
 45 46  1  0  0  0  0
 45 51  1  0  0  0  0
 46 47  1  0  0  0  0
 46 48  2  0  0  0  0
 48 49  1  0  0  0  0
 48 50  1  0  0  0  0
 50 51  2  0  0  0  0
 51 52  1  0  0  0  0
M  END
>  <Activity>
9.1804

>  <AM1_dipole>
4.58134

>  <AM1_E>
-135824

>  <AM1_Eele>
-1.04879e+006

>  <AM1_HF>
42.3518

>  <AM1_HOMO>
-9.17646

>  <AM1_IP>
9.17646

>  <AM1_LUMO>
-1.24818

>  <diameter>
17

>  <petitjean>
0.470588

>  <petitjeanSC>
0.888889

>  <radius>
9

>  <VDistEq>
3.84292

>  <VDistMa>
9.77179

>  <weinerPath>
3443

>  <weinerPol>
56

>  <BCUT_PEOE_0>
-2.71188

>  <BCUT_PEOE_1>
-0.647623

>  <BCUT_PEOE_2>
0.698844

>  <BCUT_PEOE_3>
2.65031

>  <BCUT_SLOGP_0>
-2.86001

>  <BCUT_SLOGP_1>
-0.571069

>  <BCUT_SLOGP_2>
0.805915

>  <BCUT_SLOGP_3>
2.50328

>  <BCUT_SMR_0>
-2.43203

>  <BCUT_SMR_1>
-0.499862

>  <BCUT_SMR_2>
0.854311

>  <BCUT_SMR_3>
2.92024

>  <GCUT_PEOE_0>
-0.852346

>  <GCUT_PEOE_1>
-0.40374

>  <GCUT_PEOE_2>
0.080099

>  <GCUT_PEOE_3>
2.69516

>  <GCUT_SLOGP_0>
-0.976495

>  <GCUT_SLOGP_1>
-0.349859

>  <GCUT_SLOGP_2>
0.167149

>  <GCUT_SLOGP_3>
2.6741

>  <GCUT_SMR_0>
-0.508917

>  <GCUT_SMR_1>
-0.216283

>  <GCUT_SMR_2>
0.228582

>  <GCUT_SMR_3>
2.96561

>  <a_aro>
20

>  <a_count>
52

>  <a_IC>
91.4057

>  <a_ICM>
1.7578

>  <a_nH>
19

>  <b_1rotN>
6

>  <b_1rotR>
0.162162

>  <b_ar>
21

>  <b_count>
56

>  <b_double>
3

>  <b_rotN>
6

>  <b_rotR>
0.162162

>  <b_single>
32

>  <b_triple>
0

>  <chi0v>
17.4407

>  <chi0v_C>
13.1019

>  <chi1v>
10.3617

>  <chi1v_C>
5.57137

>  <chiral>
0

>  <chiral_u>
0

>  <nmol>
1

>  <reactive>
0

>  <rings>
5

>  <Weight>
446.442

>  <a_heavy>
33

>  <a_nB>
0

>  <a_nBr>
0

>  <a_nC>
23

>  <a_nCl>
0

>  <a_nF>
1

>  <a_nI>
0

>  <a_nN>
6

>  <a_nO>
3

>  <a_nP>
0

>  <a_nS>
0

>  <b_heavy>
37

>  <chi0>
22.949

>  <chi0_C>
15.0956

>  <chi1>
16.0417

>  <chi1_C>
7.46633

>  <FCharge>
0

>  <VAdjEq>
0.358235

>  <VAdjMa>
6.20945

>  <zagreb>
180

>  <balabanJ>
1.16365

>  <PEOE_PC+>
3.08771

>  <PEOE_PC->
-3.08771

>  <PEOE_RPC+>
0.0955727

>  <PEOE_RPC->
0.115634

>  <PEOE_VSA+0>
105.216

>  <PEOE_VSA+1>
100.374

>  <PEOE_VSA+2>
25.5023

>  <PEOE_VSA+3>
28.8304

>  <PEOE_VSA+4>
0

>  <PEOE_VSA+5>
34.3576

>  <PEOE_VSA+6>
0

>  <PEOE_VSA-0>
24.5098

>  <PEOE_VSA-1>
36.7647

>  <PEOE_VSA-2>
0

>  <PEOE_VSA-3>
0

>  <PEOE_VSA-4>
23.2738

>  <PEOE_VSA-5>
40.7008

>  <PEOE_VSA-6>
0.136891

>  <PEOE_VSA_FHYD>
0.765363

>  <PEOE_VSA_FNEG>
0.298776

>  <PEOE_VSA_FPNEG>
0.152768

>  <PEOE_VSA_FPOL>
0.234637

>  <PEOE_VSA_FPOS>
0.701224

>  <PEOE_VSA_FPPOS>
0.0818689

>  <PEOE_VSA_HYD>
321.197

>  <PEOE_VSA_NEG>
125.386

>  <PEOE_VSA_PNEG>
64.1114

>  <PEOE_VSA_POL>
98.469

>  <PEOE_VSA_POS>
294.28

>  <PEOE_VSA_PPOS>
34.3576

>  <PC+>
5.996

>  <PC->
-5.997

>  <Q_PC+>
5.996

>  <Q_PC->
-5.997

>  <Q_RPC+>
0.109406

>  <Q_RPC->
0.110055

>  <Q_VSA_FHYD>
0.541316

>  <Q_VSA_FNEG>
0.399482

>  <Q_VSA_FPNEG>
0.203871

>  <Q_VSA_FPOL>
0.458684

>  <Q_VSA_FPOS>
0.600518

>  <Q_VSA_FPPOS>
0.254813

>  <Q_VSA_HYD>
227.172

>  <Q_VSA_NEG>
167.649

>  <Q_VSA_PNEG>
85.5577

>  <Q_VSA_POL>
192.494

>  <Q_VSA_POS>
252.017

>  <Q_VSA_PPOS>
106.936

>  <RPC+>
0.109406

>  <RPC->
0.110055

>  <lip_acc>
9

>  <lip_don>
1

>  <lip_druglike>
1

>  <lip_violation>
0

>  <opr_brigid>
27

>  <opr_leadlike>
0

>  <opr_nring>
5

>  <opr_nrot>
6

>  <opr_violation>
2

>  <E>
113.228

>  <E_ang>
10.7982

>  <E_ele>
40.9037

>  <E_nb>
90.4346

>  <E_oop>
0.0733945

>  <E_sol>
-20.6451

>  <E_stb>
0.87283

>  <E_str>
7.56715

>  <E_strain>
0.00796248

>  <E_tor>
3.48148

>  <E_vdw>
49.5309

>  <E_rele>
0

>  <E_rnb>
1.42109e-014

>  <E_rsol>
1.42109e-014

>  <E_rvdw>
0

>  <Kier1>
24.6837

>  <Kier2>
10.9477

>  <Kier3>
5.12

>  <KierA1>
16.5045

>  <KierA2>
7.21981

>  <KierA3>
3.34273

>  <KierFlex>
3.61089

>  <logS>
-3.69978

>  <MNDO_dipole>
5.62619

>  <MNDO_E>
-135946

>  <MNDO_Eele>
-1.04097e+006

>  <MNDO_HF>
-8.99655

>  <MNDO_HOMO>
-9.37837

>  <MNDO_IP>
9.37837

>  <MNDO_LUMO>
-1.32604

>  <apol>
62.7121

>  <bpol>
34.0879

>  <mr>
11.9225

>  <dipole>
1.12343

>  <dipoleX>
1.00906

>  <dipoleY>
-0.458214

>  <dipoleZ>
0.184199

>  <pmi>
12707.5

>  <pmiX>
9426.03

>  <pmiY>
2592.9

>  <pmiZ>
688.606

>  <rgyr>
5.33517

>  <a_acc>
5

>  <a_acid>
0

>  <a_base>
0

>  <a_don>
1

>  <a_hyd>
19

>  <vsa_acc>
52.0659

>  <vsa_acid>
0

>  <vsa_base>
0

>  <vsa_don>
5.68258

>  <vsa_hyd>
275.693

>  <vsa_other>
70.3387

>  <vsa_pol>
57.7485

>  <PM3_dipole>
3.73139

>  <PM3_E>
-122464

>  <PM3_Eele>
-1.0322e+006

>  <PM3_HF>
4.59624

>  <PM3_HOMO>
-9.19533

>  <PM3_IP>
9.19533

>  <PM3_LUMO>
-1.42878

>  <SlogP>
2.055

>  <SlogP_VSA0>
0

>  <SlogP_VSA1>
57.924

>  <SlogP_VSA2>
49.7688

>  <SlogP_VSA3>
73.7583

>  <SlogP_VSA4>
54.0956

>  <SlogP_VSA5>
0

>  <SlogP_VSA6>
0

>  <SlogP_VSA7>
180.904

>  <SlogP_VSA8>
0

>  <SlogP_VSA9>
14.9601

>  <SMR>
11.643

>  <SMR_VSA0>
71.5866

>  <SMR_VSA1>
56.6789

>  <SMR_VSA2>
25.9065

>  <SMR_VSA3>
6.37115

>  <SMR_VSA4>
7.04502

>  <SMR_VSA5>
173.859

>  <SMR_VSA6>
89.9635

>  <SMR_VSA7>
0

>  <ASA>
701.967

>  <ASA+>
341.325

>  <ASA->
255.764

>  <ASA_H>
498.591

>  <ASA_P>
203.376

>  <CASA+>
2046.59

>  <CASA->
1533.82

>  <DASA>
85.5611

>  <DCASA>
512.768

>  <FASA+>
0.486241

>  <FASA->
0.364353

>  <FASA_H>
0.710277

>  <FASA_P>
0.289723

>  <FCASA+>
2.9155

>  <FCASA->
2.18503

>  <VSA>
435.988

>  <TPSA>
104.19

>  <density>
0.796431

>  <vdw_area>
419.666

>  <vdw_vol>
560.553

>  <vsurf_A>
2.5977

>  <vsurf_CP>
0.0850368

>  <vsurf_CW1>
2.70104

>  <vsurf_CW2>
2.27481

>  <vsurf_CW3>
1.5926

>  <vsurf_CW4>
0.738591

>  <vsurf_CW5>
0.311456

>  <vsurf_CW6>
0.0998988

>  <vsurf_CW7>
0.00517316

>  <vsurf_CW8>
0

>  <vsurf_D1>
945.25

>  <vsurf_D2>
560.375

>  <vsurf_D3>
415.375

>  <vsurf_D4>
346.5

>  <vsurf_D5>
290.5

>  <vsurf_D6>
231.5

>  <vsurf_D7>
142.625

>  <vsurf_D8>
85.125

>  <vsurf_DD12>
0.5

>  <vsurf_DD13>
0.866025

>  <vsurf_DD23>
0.707107

>  <vsurf_DW12>
0.707107

>  <vsurf_DW13>
0.5

>  <vsurf_DW23>
0.5

>  <vsurf_EDmin1>
-2.80618

>  <vsurf_EDmin2>
-2.67524

>  <vsurf_EDmin3>
-2.67484

>  <vsurf_EWmin1>
-5.64805

>  <vsurf_EWmin2>
-5.50383

>  <vsurf_EWmin3>
-5.48543

>  <vsurf_G>
1.3881

>  <vsurf_HB1>
432.875

>  <vsurf_HB2>
522.125

>  <vsurf_HB3>
454.125

>  <vsurf_HB4>
171.25

>  <vsurf_HB5>
56

>  <vsurf_HB6>
14.875

>  <vsurf_HB7>
1.25

>  <vsurf_HB8>
0

>  <vsurf_HL1>
0.147457

>  <vsurf_HL2>
0.047619

>  <vsurf_ID1>
0.966728

>  <vsurf_ID2>
0.930263

>  <vsurf_ID3>
1.12749

>  <vsurf_ID4>
1.46615

>  <vsurf_ID5>
1.89901

>  <vsurf_ID6>
2.07168

>  <vsurf_ID7>
1.04931

>  <vsurf_ID8>
1.02329

>  <vsurf_IW1>
0.576869

>  <vsurf_IW2>
1.20351

>  <vsurf_IW3>
1.61885

>  <vsurf_IW4>
1.72899

>  <vsurf_IW5>
1.61211

>  <vsurf_IW6>
2.09847

>  <vsurf_IW7>
3.22181

>  <vsurf_IW8>
0

>  <vsurf_R>
1.44931

>  <vsurf_S>
635.389

>  <vsurf_V>
920.875

>  <vsurf_W1>
1632.63

>  <vsurf_W2>
1031.38

>  <vsurf_W3>
550.875

>  <vsurf_W4>
184.125

>  <vsurf_W5>
61.25

>  <vsurf_W6>
16.5

>  <vsurf_W7>
1.25

>  <vsurf_W8>
0

>  <vsurf_Wp1>
1199.75

>  <vsurf_Wp2>
509.25

>  <vsurf_Wp3>
96.75

>  <vsurf_Wp4>
12.875

>  <vsurf_Wp5>
5.25

>  <vsurf_Wp6>
1.625

>  <vsurf_Wp7>
0

>  <vsurf_Wp8>
0

>  <dens>
1.11785

>  <glob>
0.0559088

>  <std_dim1>
5.25331

>  <std_dim2>
1.5181

>  <std_dim3>
1.24215

>  <vol>
399.375

>  <logP(o/w)>
1.57506

$$$$
D17.cdx
  MOE2008           3D

 52 56  0  0  0  0  0  0  0  0999 V2000
   -5.5760    7.4060   -0.0820 C   0  0  0  0  0  0  0  0  0  0  0  0
   -6.3590    8.1510   -0.1890 H   0  0  0  0  0  0  0  0  0  0  0  0
   -5.9190    6.1530   -0.4600 N   0  0  0  0  0  0  0  0  0  0  0  0
   -5.0030    5.1400   -0.3650 C   0  0  0  0  0  0  0  0  0  0  0  0
   -3.7300    5.4740    0.1350 C   0  0  0  0  0  0  0  0  0  0  0  0
   -3.3640    6.7640    0.5280 C   0  0  0  0  0  0  0  0  0  0  0  0
   -4.3350    7.7710    0.4110 C   0  0  0  0  0  0  0  0  0  0  0  0
   -2.6320    4.6660    0.3370 N   0  0  0  0  0  0  0  0  0  0  0  0
   -2.6380    3.6700    0.1300 H   0  0  0  0  0  0  0  0  0  0  0  0
   -1.5890    5.3920    0.8330 C   0  0  0  0  0  0  0  0  0  0  0  0
   -0.6450    4.9070    1.0490 H   0  0  0  0  0  0  0  0  0  0  0  0
   -1.9980    6.7080    0.9690 C   0  0  0  0  0  0  0  0  0  0  0  0
   -1.1530    7.7930    1.4550 C   0  0  0  0  0  0  0  0  0  0  0  0
    0.3010    7.5180    1.7900 C   0  0  0  0  0  0  0  0  0  0  0  0
    1.2250    7.6900    0.7640 N   0  0  0  0  0  0  0  0  0  0  0  0
    2.6390    7.3970    1.0030 C   0  0  0  0  0  0  0  0  0  0  0  0
    2.8180    7.1570    2.0560 H   0  0  0  0  0  0  0  0  0  0  0  0
    2.8770    6.5030    0.4150 H   0  0  0  0  0  0  0  0  0  0  0  0
    3.5420    8.5610    0.5700 C   0  0  0  0  0  0  0  0  0  0  0  0
    4.5840    8.2440    0.6500 H   0  0  0  0  0  0  0  0  0  0  0  0
    3.3940    9.4220    1.2320 H   0  0  0  0  0  0  0  0  0  0  0  0
    3.2110    9.0090   -0.7930 N   0  0  0  0  0  0  0  0  0  0  0  0
    1.7950    9.3150   -1.0130 C   0  0  0  0  0  0  0  0  0  0  0  0
    1.5640   10.1950   -0.4000 H   0  0  0  0  0  0  0  0  0  0  0  0
    1.6020    9.5800   -2.0560 H   0  0  0  0  0  0  0  0  0  0  0  0
    0.9020    8.1410   -0.5980 C   0  0  0  0  0  0  0  0  0  0  0  0
    1.0740    7.2850   -1.2610 H   0  0  0  0  0  0  0  0  0  0  0  0
   -0.1470    8.4280   -0.6930 H   0  0  0  0  0  0  0  0  0  0  0  0
    4.1060    9.1460   -1.8510 C   0  0  0  0  0  0  0  0  0  0  0  0
    5.5570    9.0380   -1.5800 C   0  0  0  0  0  0  0  0  0  0  0  0
   -1.5380    8.9500    1.5900 O   0  0  0  0  0  0  0  0  0  0  0  0
    0.5580    7.1450    2.9290 O   0  0  0  0  0  0  0  0  0  0  0  0
    3.7710    9.3510   -3.0140 O   0  0  0  0  0  0  0  0  0  0  0  0
   -4.1110    9.0460    0.7480 F   0  0  0  0  0  0  0  0  0  0  0  0
    6.2990    8.0650   -2.2560 C   0  0  0  0  0  0  0  0  0  0  0  0
    5.8110    7.3850   -2.9510 H   0  0  0  0  0  0  0  0  0  0  0  0
    7.6730    7.9720   -2.0350 C   0  0  0  0  0  0  0  0  0  0  0  0
    8.2580    7.2160   -2.5530 H   0  0  0  0  0  0  0  0  0  0  0  0
    8.3000    8.8560   -1.1540 C   0  0  0  0  0  0  0  0  0  0  0  0
    9.3720    8.7830   -0.9860 H   0  0  0  0  0  0  0  0  0  0  0  0
    7.5580    9.8410   -0.4980 C   0  0  0  0  0  0  0  0  0  0  0  0
    8.0550   10.5340    0.1760 H   0  0  0  0  0  0  0  0  0  0  0  0
    6.1840    9.9410   -0.7150 C   0  0  0  0  0  0  0  0  0  0  0  0
    5.6130   10.7190   -0.2170 H   0  0  0  0  0  0  0  0  0  0  0  0
   -5.3380    3.8140   -0.7600 N   0  0  0  0  0  0  0  0  0  0  0  0
   -6.5490    3.3840   -1.2510 C   0  0  0  0  0  0  0  0  0  0  0  0
   -7.3780    4.0670   -1.3750 H   0  0  0  0  0  0  0  0  0  0  0  0
   -6.4210    2.0390   -1.4990 C   0  0  0  0  0  0  0  0  0  0  0  0
   -7.1770    1.3730   -1.8900 H   0  0  0  0  0  0  0  0  0  0  0  0
   -5.0990    1.7350   -1.1310 C   0  0  0  0  0  0  0  0  0  0  0  0
   -4.5940    0.7790   -1.1710 H   0  0  0  0  0  0  0  0  0  0  0  0
   -4.4290    2.7990   -0.6830 N   0  0  0  0  0  0  0  0  0  0  0  0
  1  2  1  0  0  0  0
  1  3  1  0  0  0  0
  1  7  2  0  0  0  0
  3  4  2  0  0  0  0
  4  5  1  0  0  0  0
  4 45  1  0  0  0  0
  5  6  2  0  0  0  0
  5  8  1  0  0  0  0
  6  7  1  0  0  0  0
  6 12  1  0  0  0  0
  7 34  1  0  0  0  0
  8  9  1  0  0  0  0
  8 10  1  0  0  0  0
 10 11  1  0  0  0  0
 10 12  2  0  0  0  0
 12 13  1  0  0  0  0
 13 14  1  0  0  0  0
 13 31  2  0  0  0  0
 14 15  1  0  0  0  0
 14 32  2  0  0  0  0
 15 16  1  0  0  0  0
 15 26  1  0  0  0  0
 16 17  1  0  0  0  0
 16 18  1  0  0  0  0
 16 19  1  0  0  0  0
 19 20  1  0  0  0  0
 19 21  1  0  0  0  0
 19 22  1  0  0  0  0
 22 23  1  0  0  0  0
 22 29  1  0  0  0  0
 23 24  1  0  0  0  0
 23 25  1  0  0  0  0
 23 26  1  0  0  0  0
 26 27  1  0  0  0  0
 26 28  1  0  0  0  0
 29 30  1  0  0  0  0
 29 33  2  0  0  0  0
 30 35  1  0  0  0  0
 30 43  2  0  0  0  0
 35 36  1  0  0  0  0
 35 37  2  0  0  0  0
 37 38  1  0  0  0  0
 37 39  1  0  0  0  0
 39 40  1  0  0  0  0
 39 41  2  0  0  0  0
 41 42  1  0  0  0  0
 41 43  1  0  0  0  0
 43 44  1  0  0  0  0
 45 46  1  0  0  0  0
 45 52  1  0  0  0  0
 46 47  1  0  0  0  0
 46 48  2  0  0  0  0
 48 49  1  0  0  0  0
 48 50  1  0  0  0  0
 50 51  1  0  0  0  0
 50 52  2  0  0  0  0
M  END
>  <Activity>
10

>  <AM1_dipole>
4.81933

>  <AM1_E>
-135810

>  <AM1_Eele>
-1.05292e+006

>  <AM1_HF>
54.8779

>  <AM1_HOMO>
-8.8651

>  <AM1_IP>
8.8651

>  <AM1_LUMO>
-1.11206

>  <diameter>
17

>  <petitjean>
0.470588

>  <petitjeanSC>
0.888889

>  <radius>
9

>  <VDistEq>
3.84292

>  <VDistMa>
9.77179

>  <weinerPath>
3443

>  <weinerPol>
56

>  <BCUT_PEOE_0>
-2.71188

>  <BCUT_PEOE_1>
-0.63738

>  <BCUT_PEOE_2>
0.698844

>  <BCUT_PEOE_3>
2.65031

>  <BCUT_SLOGP_0>
-2.86001

>  <BCUT_SLOGP_1>
-0.53808

>  <BCUT_SLOGP_2>
0.805915

>  <BCUT_SLOGP_3>
2.50327

>  <BCUT_SMR_0>
-2.43203

>  <BCUT_SMR_1>
-0.454286

>  <BCUT_SMR_2>
0.854311

>  <BCUT_SMR_3>
2.92024

>  <GCUT_PEOE_0>
-0.852319

>  <GCUT_PEOE_1>
-0.40374

>  <GCUT_PEOE_2>
0.080099

>  <GCUT_PEOE_3>
2.69236

>  <GCUT_SLOGP_0>
-0.976506

>  <GCUT_SLOGP_1>
-0.349506

>  <GCUT_SLOGP_2>
0.164454

>  <GCUT_SLOGP_3>
2.66898

>  <GCUT_SMR_0>
-0.508918

>  <GCUT_SMR_1>
-0.216057

>  <GCUT_SMR_2>
0.224025

>  <GCUT_SMR_3>
2.96223

>  <a_aro>
20

>  <a_count>
52

>  <a_IC>
91.4057

>  <a_ICM>
1.7578

>  <a_nH>
19

>  <b_1rotN>
6

>  <b_1rotR>
0.162162

>  <b_ar>
21

>  <b_count>
56

>  <b_double>
3

>  <b_rotN>
6

>  <b_rotR>
0.162162

>  <b_single>
32

>  <b_triple>
0

>  <chi0v>
17.4407

>  <chi0v_C>
13.1019

>  <chi1v>
10.3787

>  <chi1v_C>
5.9047

>  <chiral>
0

>  <chiral_u>
0

>  <nmol>
1

>  <reactive>
0

>  <rings>
5

>  <Weight>
446.442

>  <a_heavy>
33

>  <a_nB>
0

>  <a_nBr>
0

>  <a_nC>
23

>  <a_nCl>
0

>  <a_nF>
1

>  <a_nI>
0

>  <a_nN>
6

>  <a_nO>
3

>  <a_nP>
0

>  <a_nS>
0

>  <b_heavy>
37

>  <chi0>
22.949

>  <chi0_C>
15.0956

>  <chi1>
16.0417

>  <chi1_C>
7.96633

>  <FCharge>
0

>  <VAdjEq>
0.358235

>  <VAdjMa>
6.20945

>  <zagreb>
180

>  <balabanJ>
1.16365

>  <PEOE_PC+>
2.97122

>  <PEOE_PC->
-2.97122

>  <PEOE_RPC+>
0.0993197

>  <PEOE_RPC->
0.120156

>  <PEOE_VSA+0>
105.216

>  <PEOE_VSA+1>
104.639

>  <PEOE_VSA+2>
0

>  <PEOE_VSA+3>
28.8304

>  <PEOE_VSA+4>
0

>  <PEOE_VSA+5>
34.3576

>  <PEOE_VSA+6>
0

>  <PEOE_VSA-0>
36.7647

>  <PEOE_VSA-1>
36.7647

>  <PEOE_VSA-2>
0

>  <PEOE_VSA-3>
9.42104

>  <PEOE_VSA-4>
17.5912

>  <PEOE_VSA-5>
40.7008

>  <PEOE_VSA-6>
0.136891

>  <PEOE_VSA_FHYD>
0.776107

>  <PEOE_VSA_FNEG>
0.341148

>  <PEOE_VSA_FPNEG>
0.140989

>  <PEOE_VSA_FPOL>
0.223893

>  <PEOE_VSA_FPOS>
0.658852

>  <PEOE_VSA_FPPOS>
0.0829047

>  <PEOE_VSA_HYD>
321.636

>  <PEOE_VSA_NEG>
141.379

>  <PEOE_VSA_PNEG>
58.4289

>  <PEOE_VSA_POL>
92.7864

>  <PEOE_VSA_POS>
273.043

>  <PEOE_VSA_PPOS>
34.3576

>  <PC+>
6.288

>  <PC->
-6.289

>  <Q_PC+>
6.288

>  <Q_PC->
-6.289

>  <Q_RPC+>
0.104326

>  <Q_RPC->
0.112419

>  <Q_VSA_FHYD>
0.526491

>  <Q_VSA_FNEG>
0.443128

>  <Q_VSA_FPNEG>
0.215471

>  <Q_VSA_FPOL>
0.473509

>  <Q_VSA_FPOS>
0.556872

>  <Q_VSA_FPPOS>
0.258037

>  <Q_VSA_HYD>
218.19

>  <Q_VSA_NEG>
183.642

>  <Q_VSA_PNEG>
89.2962

>  <Q_VSA_POL>
196.233

>  <Q_VSA_POS>
230.78

>  <Q_VSA_PPOS>
106.936

>  <RPC+>
0.104326

>  <RPC->
0.112419

>  <lip_acc>
9

>  <lip_don>
1

>  <lip_druglike>
1

>  <lip_violation>
0

>  <opr_brigid>
27

>  <opr_leadlike>
0

>  <opr_nring>
5

>  <opr_nrot>
6

>  <opr_violation>
2

>  <E>
111.391

>  <E_ang>
8.62104

>  <E_ele>
42.462

>  <E_nb>
93.1183

>  <E_oop>
0.0521363

>  <E_sol>
-21.0301

>  <E_stb>
0.907274

>  <E_str>
6.86246

>  <E_strain>
0.00530427

>  <E_tor>
1.83029

>  <E_vdw>
50.6562

>  <E_rele>
0

>  <E_rnb>
0

>  <E_rsol>
0

>  <E_rvdw>
0

>  <Kier1>
24.6837

>  <Kier2>
10.9477

>  <Kier3>
5.12

>  <KierA1>
16.5045

>  <KierA2>
7.21981

>  <KierA3>
3.34273

>  <KierFlex>
3.61089

>  <logS>
-3.5316

>  <MNDO_dipole>
5.38972

>  <MNDO_E>
-135937

>  <MNDO_Eele>
-1.04289e+006

>  <MNDO_HF>
-0.01484

>  <MNDO_HOMO>
-8.9933

>  <MNDO_IP>
8.9933

>  <MNDO_LUMO>
-1.12705

>  <apol>
62.7121

>  <bpol>
32.7679

>  <mr>
11.9215

>  <dipole>
1.19825

>  <dipoleX>
0.447522

>  <dipoleY>
-1.10046

>  <dipoleZ>
-0.156575

>  <pmi>
12247.2

>  <pmiX>
9157.47

>  <pmiY>
2310.72

>  <pmiZ>
778.966

>  <rgyr>
5.23763

>  <a_acc>
5

>  <a_acid>
0

>  <a_base>
0

>  <a_don>
1

>  <a_hyd>
20

>  <vsa_acc>
55.8044

>  <vsa_acid>
0

>  <vsa_base>
0

>  <vsa_don>
5.68258

>  <vsa_hyd>
291.502

>  <vsa_other>
45.5481

>  <vsa_pol>
61.487

>  <PM3_dipole>
4.78704

>  <PM3_E>
-122451

>  <PM3_Eele>
-1.0347e+006

>  <PM3_HF>
18.5637

>  <PM3_HOMO>
-8.97151

>  <PM3_IP>
8.97151

>  <PM3_LUMO>
-1.29335

>  <SlogP>
2.055

>  <SlogP_VSA0>
0

>  <SlogP_VSA1>
57.6789

>  <SlogP_VSA2>
49.7688

>  <SlogP_VSA3>
73.7583

>  <SlogP_VSA4>
54.0956

>  <SlogP_VSA5>
0

>  <SlogP_VSA6>
0

>  <SlogP_VSA7>
181.762

>  <SlogP_VSA8>
0

>  <SlogP_VSA9>
14.9601

>  <SMR>
11.643

>  <SMR_VSA0>
71.5866

>  <SMR_VSA1>
56.4338

>  <SMR_VSA2>
25.9065

>  <SMR_VSA3>
6.37115

>  <SMR_VSA4>
7.04502

>  <SMR_VSA5>
174.717

>  <SMR_VSA6>
89.9635

>  <SMR_VSA7>
0

>  <ASA>
695.307

>  <ASA+>
324.993

>  <ASA->
267.443

>  <ASA_H>
507.28

>  <ASA_P>
188.027

>  <CASA+>
2043.55

>  <CASA->
1681.95

>  <DASA>
57.5493

>  <DCASA>
361.603

>  <FASA+>
0.467409

>  <FASA->
0.384641

>  <FASA_H>
0.729577

>  <FASA_P>
0.270423

>  <FCASA+>
2.93907

>  <FCASA->
2.419

>  <VSA>
436.529

>  <TPSA>
104.19

>  <density>
0.797587

>  <vdw_area>
414.422

>  <vdw_vol>
559.741

>  <vsurf_A>
2.33072

>  <vsurf_CP>
0.0849878

>  <vsurf_CW1>
2.64824

>  <vsurf_CW2>
2.14836

>  <vsurf_CW3>
1.46685

>  <vsurf_CW4>
0.703068

>  <vsurf_CW5>
0.321157

>  <vsurf_CW6>
0.10913

>  <vsurf_CW7>
0.0237528

>  <vsurf_CW8>
0.00654021

>  <vsurf_D1>
973.5

>  <vsurf_D2>
567.5

>  <vsurf_D3>
420.125

>  <vsurf_D4>
357.25

>  <vsurf_D5>
304.375

>  <vsurf_D6>
239.75

>  <vsurf_D7>
137.75

>  <vsurf_D8>
78.625

>  <vsurf_DD12>
0.5

>  <vsurf_DD13>
0.707107

>  <vsurf_DD23>
1.11803

>  <vsurf_DW12>
0.5

>  <vsurf_DW13>
0.866025

>  <vsurf_DW23>
1.22474

>  <vsurf_EDmin1>
-2.80364

>  <vsurf_EDmin2>
-2.80206

>  <vsurf_EDmin3>
-2.74925

>  <vsurf_EWmin1>
-7.13298

>  <vsurf_EWmin2>
-7.01339

>  <vsurf_EWmin3>
-6.57

>  <vsurf_G>
1.39144

>  <vsurf_HB1>
368.75

>  <vsurf_HB2>
442.375

>  <vsurf_HB3>
424.5

>  <vsurf_HB4>
175.875

>  <vsurf_HB5>
63.25

>  <vsurf_HB6>
20.625

>  <vsurf_HB7>
4.625

>  <vsurf_HB8>
1

>  <vsurf_HL1>
0.155906

>  <vsurf_HL2>
0.0577327

>  <vsurf_ID1>
1.11704

>  <vsurf_ID2>
1.0508

>  <vsurf_ID3>
1.17315

>  <vsurf_ID4>
1.39136

>  <vsurf_ID5>
1.66193

>  <vsurf_ID6>
1.8181

>  <vsurf_ID7>
1.00352

>  <vsurf_ID8>
0.81832

>  <vsurf_IW1>
0.132365

>  <vsurf_IW2>
0.757047

>  <vsurf_IW3>
1.20891

>  <vsurf_IW4>
1.43391

>  <vsurf_IW5>
1.32015

>  <vsurf_IW6>
1.51621

>  <vsurf_IW7>
3.86156

>  <vsurf_IW8>
5.6323

>  <vsurf_R>
1.44694

>  <vsurf_S>
637.897

>  <vsurf_V>
923

>  <vsurf_W1>
1566.13

>  <vsurf_W2>
955.625

>  <vsurf_W3>
519.375

>  <vsurf_W4>
184.125

>  <vsurf_W5>
65.5

>  <vsurf_W6>
20.625

>  <vsurf_W7>
4.625

>  <vsurf_W8>
1

>  <vsurf_Wp1>
1197.38

>  <vsurf_Wp2>
513.25

>  <vsurf_Wp3>
94.875

>  <vsurf_Wp4>
8.25

>  <vsurf_Wp5>
2.25

>  <vsurf_Wp6>
0

>  <vsurf_Wp7>
0

>  <vsurf_Wp8>
0

>  <dens>
1.1161

>  <glob>
0.0508305

>  <std_dim1>
5.14144

>  <std_dim2>
1.74265

>  <std_dim3>
1.15917

>  <vol>
400

>  <logP(o/w)>
1.62159

$$$$
D17.cdx
  MOE2008           3D

 55 59  0  0  0  0  0  0  0  0999 V2000
   -6.3300    2.4650    0.1280 C   0  0  0  0  0  0  0  0  0  0  0  0
   -7.1290    3.1880   -0.0060 H   0  0  0  0  0  0  0  0  0  0  0  0
   -6.6480    1.1900   -0.1900 N   0  0  0  0  0  0  0  0  0  0  0  0
   -5.7100    0.2000   -0.0570 C   0  0  0  0  0  0  0  0  0  0  0  0
   -4.4400    0.5840    0.4180 C   0  0  0  0  0  0  0  0  0  0  0  0
   -4.1010    1.8990    0.7500 C   0  0  0  0  0  0  0  0  0  0  0  0
   -5.0940    2.8780    0.5950 C   0  0  0  0  0  0  0  0  0  0  0  0
   -3.3240   -0.1900    0.6470 N   0  0  0  0  0  0  0  0  0  0  0  0
   -3.3100   -1.1940    0.4850 H   0  0  0  0  0  0  0  0  0  0  0  0
   -2.2940    0.5810    1.1030 C   0  0  0  0  0  0  0  0  0  0  0  0
   -1.3380    0.1260    1.3320 H   0  0  0  0  0  0  0  0  0  0  0  0
   -2.7300    1.8920    1.1820 C   0  0  0  0  0  0  0  0  0  0  0  0
   -1.9060    3.0170    1.6130 C   0  0  0  0  0  0  0  0  0  0  0  0
   -0.4440    2.7910    1.9480 C   0  0  0  0  0  0  0  0  0  0  0  0
    0.4680    2.9350    0.9060 N   0  0  0  0  0  0  0  0  0  0  0  0
    1.8900    2.6850    1.1460 C   0  0  0  0  0  0  0  0  0  0  0  0
    2.0840    2.5010    2.2070 H   0  0  0  0  0  0  0  0  0  0  0  0
    2.1440    1.7690    0.5990 H   0  0  0  0  0  0  0  0  0  0  0  0
    2.7630    3.8470    0.6490 C   0  0  0  0  0  0  0  0  0  0  0  0
    3.8120    3.5570    0.7340 H   0  0  0  0  0  0  0  0  0  0  0  0
    2.6000    4.7350    1.2700 H   0  0  0  0  0  0  0  0  0  0  0  0
    2.4100    4.2220   -0.7310 N   0  0  0  0  0  0  0  0  0  0  0  0
    0.9850    4.4840   -0.9510 C   0  0  0  0  0  0  0  0  0  0  0  0
    0.7380    5.3870   -0.3800 H   0  0  0  0  0  0  0  0  0  0  0  0
    0.7770    4.6950   -2.0050 H   0  0  0  0  0  0  0  0  0  0  0  0
    0.1230    3.3120   -0.4730 C   0  0  0  0  0  0  0  0  0  0  0  0
    0.3100    2.4280   -1.0960 H   0  0  0  0  0  0  0  0  0  0  0  0
   -0.9330    3.5700   -0.5720 H   0  0  0  0  0  0  0  0  0  0  0  0
    3.2920    4.3280   -1.8030 C   0  0  0  0  0  0  0  0  0  0  0  0
    4.7470    4.2680   -1.5410 C   0  0  0  0  0  0  0  0  0  0  0  0
   -2.3160    4.1710    1.7000 O   0  0  0  0  0  0  0  0  0  0  0  0
   -0.1690    2.4800    3.1010 O   0  0  0  0  0  0  0  0  0  0  0  0
    2.9420    4.4690   -2.9710 O   0  0  0  0  0  0  0  0  0  0  0  0
   -4.8960    4.1710    0.8730 F   0  0  0  0  0  0  0  0  0  0  0  0
    5.5070    3.2830   -2.1800 C   0  0  0  0  0  0  0  0  0  0  0  0
    5.0300    2.5610   -2.8370 H   0  0  0  0  0  0  0  0  0  0  0  0
    6.8850    3.2340   -1.9680 C   0  0  0  0  0  0  0  0  0  0  0  0
    7.4840    2.4690   -2.4570 H   0  0  0  0  0  0  0  0  0  0  0  0
    7.4980    4.1720   -1.1350 C   0  0  0  0  0  0  0  0  0  0  0  0
    8.5720    4.1330   -0.9740 H   0  0  0  0  0  0  0  0  0  0  0  0
    6.7380    5.1680   -0.5170 C   0  0  0  0  0  0  0  0  0  0  0  0
    7.2230    5.9030    0.1200 H   0  0  0  0  0  0  0  0  0  0  0  0
    5.3600    5.2240   -0.7250 C   0  0  0  0  0  0  0  0  0  0  0  0
    4.7740    6.0110   -0.2580 H   0  0  0  0  0  0  0  0  0  0  0  0
   -6.0190   -1.1490   -0.3910 N   0  0  0  0  0  0  0  0  0  0  0  0
   -7.2240   -1.6220   -0.8520 C   0  0  0  0  0  0  0  0  0  0  0  0
   -8.0680   -0.9620   -1.0000 H   0  0  0  0  0  0  0  0  0  0  0  0
   -7.0700   -2.9730   -1.0420 C   0  0  0  0  0  0  0  0  0  0  0  0
   -7.8180   -3.6670   -1.3980 H   0  0  0  0  0  0  0  0  0  0  0  0
   -5.7350   -3.2440   -0.6700 C   0  0  0  0  0  0  0  0  0  0  0  0
   -5.0900   -2.1390   -0.2750 N   0  0  0  0  0  0  0  0  0  0  0  0
   -5.0340   -4.5490   -0.6790 C   0  0  0  0  0  0  0  0  0  0  0  0
   -5.6960   -5.3510   -1.0230 H   0  0  0  0  0  0  0  0  0  0  0  0
   -4.6870   -4.8060    0.3270 H   0  0  0  0  0  0  0  0  0  0  0  0
   -4.1680   -4.5160   -1.3470 H   0  0  0  0  0  0  0  0  0  0  0  0
  1  2  1  0  0  0  0
  1  3  1  0  0  0  0
  1  7  2  0  0  0  0
  3  4  2  0  0  0  0
  4  5  1  0  0  0  0
  4 45  1  0  0  0  0
  5  6  2  0  0  0  0
  5  8  1  0  0  0  0
  6  7  1  0  0  0  0
  6 12  1  0  0  0  0
  7 34  1  0  0  0  0
  8  9  1  0  0  0  0
  8 10  1  0  0  0  0
 10 11  1  0  0  0  0
 10 12  2  0  0  0  0
 12 13  1  0  0  0  0
 13 14  1  0  0  0  0
 13 31  2  0  0  0  0
 14 15  1  0  0  0  0
 14 32  2  0  0  0  0
 15 16  1  0  0  0  0
 15 26  1  0  0  0  0
 16 17  1  0  0  0  0
 16 18  1  0  0  0  0
 16 19  1  0  0  0  0
 19 20  1  0  0  0  0
 19 21  1  0  0  0  0
 19 22  1  0  0  0  0
 22 23  1  0  0  0  0
 22 29  1  0  0  0  0
 23 24  1  0  0  0  0
 23 25  1  0  0  0  0
 23 26  1  0  0  0  0
 26 27  1  0  0  0  0
 26 28  1  0  0  0  0
 29 30  1  0  0  0  0
 29 33  2  0  0  0  0
 30 35  1  0  0  0  0
 30 43  2  0  0  0  0
 35 36  1  0  0  0  0
 35 37  2  0  0  0  0
 37 38  1  0  0  0  0
 37 39  1  0  0  0  0
 39 40  1  0  0  0  0
 39 41  2  0  0  0  0
 41 42  1  0  0  0  0
 41 43  1  0  0  0  0
 43 44  1  0  0  0  0
 45 46  1  0  0  0  0
 45 51  1  0  0  0  0
 46 47  1  0  0  0  0
 46 48  2  0  0  0  0
 48 49  1  0  0  0  0
 48 50  1  0  0  0  0
 50 51  2  0  0  0  0
 50 52  1  0  0  0  0
 52 53  1  0  0  0  0
 52 54  1  0  0  0  0
 52 55  1  0  0  0  0
M  END
>  <Activity>
9.7958

>  <AM1_dipole>
5.37136

>  <AM1_E>
-139405

>  <AM1_Eele>
-1.10533e+006

>  <AM1_HF>
47.193

>  <AM1_HOMO>
-8.79331

>  <AM1_IP>
8.79331

>  <AM1_LUMO>
-1.09163

>  <diameter>
18

>  <petitjean>
0.5

>  <petitjeanSC>
1

>  <radius>
9

>  <VDistEq>
3.88578

>  <VDistMa>
9.85787

>  <weinerPath>
3748

>  <weinerPol>
58

>  <BCUT_PEOE_0>
-2.71188

>  <BCUT_PEOE_1>
-0.624506

>  <BCUT_PEOE_2>
0.698844

>  <BCUT_PEOE_3>
2.65031

>  <BCUT_SLOGP_0>
-2.86001

>  <BCUT_SLOGP_1>
-0.53808

>  <BCUT_SLOGP_2>
0.793178

>  <BCUT_SLOGP_3>
2.50328

>  <BCUT_SMR_0>
-2.43203

>  <BCUT_SMR_1>
-0.418531

>  <BCUT_SMR_2>
0.854311

>  <BCUT_SMR_3>
2.92024

>  <GCUT_PEOE_0>
-0.852313

>  <GCUT_PEOE_1>
-0.40374

>  <GCUT_PEOE_2>
0.080099

>  <GCUT_PEOE_3>
2.70686

>  <GCUT_SLOGP_0>
-0.976506

>  <GCUT_SLOGP_1>
-0.345496

>  <GCUT_SLOGP_2>
0.164454

>  <GCUT_SLOGP_3>
2.68846

>  <GCUT_SMR_0>
-0.50892

>  <GCUT_SMR_1>
-0.21592

>  <GCUT_SMR_2>
0.222962

>  <GCUT_SMR_3>
2.97723

>  <a_aro>
20

>  <a_count>
55

>  <a_IC>
95.4324

>  <a_ICM>
1.73513

>  <a_nH>
21

>  <b_1rotN>
6

>  <b_1rotR>
0.157895

>  <b_ar>
21

>  <b_count>
59

>  <b_double>
3

>  <b_rotN>
6

>  <b_rotR>
0.157895

>  <b_single>
35

>  <b_triple>
0

>  <chi0v>
18.3634

>  <chi0v_C>
14.0246

>  <chi1v>
10.7994

>  <chi1v_C>
6.36004

>  <chiral>
0

>  <chiral_u>
0

>  <nmol>
1

>  <reactive>
0

>  <rings>
5

>  <Weight>
460.469

>  <a_heavy>
34

>  <a_nB>
0

>  <a_nBr>
0

>  <a_nC>
24

>  <a_nCl>
0

>  <a_nF>
1

>  <a_nI>
0

>  <a_nN>
6

>  <a_nO>
3

>  <a_nP>
0

>  <a_nS>
0

>  <b_heavy>
38

>  <chi0>
23.8193

>  <chi0_C>
15.9659

>  <chi1>
16.4356

>  <chi1_C>
8.45193

>  <FCharge>
0

>  <VAdjEq>
0.349836

>  <VAdjMa>
6.24793

>  <zagreb>
186

>  <balabanJ>
1.16487

>  <PEOE_PC+>
2.98548

>  <PEOE_PC->
-2.98548

>  <PEOE_RPC+>
0.0988452

>  <PEOE_RPC->
0.119582

>  <PEOE_VSA+0>
101.266

>  <PEOE_VSA+1>
107.074

>  <PEOE_VSA+2>
0

>  <PEOE_VSA+3>
28.8304

>  <PEOE_VSA+4>
0

>  <PEOE_VSA+5>
34.3576

>  <PEOE_VSA+6>
0

>  <PEOE_VSA-0>
55.5124

>  <PEOE_VSA-1>
36.7647

>  <PEOE_VSA-2>
0

>  <PEOE_VSA-3>
9.42104

>  <PEOE_VSA-4>
17.5912

>  <PEOE_VSA-5>
40.7008

>  <PEOE_VSA-6>
0.136891

>  <PEOE_VSA_FHYD>
0.785045

>  <PEOE_VSA_FNEG>
0.370961

>  <PEOE_VSA_FPNEG>
0.13536

>  <PEOE_VSA_FPOL>
0.214955

>  <PEOE_VSA_FPOS>
0.629039

>  <PEOE_VSA_FPPOS>
0.0795951

>  <PEOE_VSA_HYD>
338.868

>  <PEOE_VSA_NEG>
160.127

>  <PEOE_VSA_PNEG>
58.4289

>  <PEOE_VSA_POL>
92.7864

>  <PEOE_VSA_POS>
271.527

>  <PEOE_VSA_PPOS>
34.3576

>  <PC+>
6.288

>  <PC->
-6.289

>  <Q_PC+>
6.288

>  <Q_PC->
-6.289

>  <Q_RPC+>
0.104326

>  <Q_RPC->
0.112419

>  <Q_VSA_FHYD>
0.545394

>  <Q_VSA_FNEG>
0.425438

>  <Q_VSA_FPNEG>
0.20687

>  <Q_VSA_FPOL>
0.454606

>  <Q_VSA_FPOS>
0.574562

>  <Q_VSA_FPPOS>
0.247736

>  <Q_VSA_HYD>
235.422

>  <Q_VSA_NEG>
183.642

>  <Q_VSA_PNEG>
89.2962

>  <Q_VSA_POL>
196.233

>  <Q_VSA_POS>
248.012

>  <Q_VSA_PPOS>
106.936

>  <RPC+>
0.104326

>  <RPC->
0.112419

>  <lip_acc>
9

>  <lip_don>
1

>  <lip_druglike>
1

>  <lip_violation>
0

>  <opr_brigid>
27

>  <opr_leadlike>
0

>  <opr_nring>
5

>  <opr_nrot>
6

>  <opr_violation>
3

>  <E>
112.286

>  <E_ang>
8.70343

>  <E_ele>
42.39

>  <E_nb>
93.8393

>  <E_oop>
0.0533629

>  <E_sol>
-21.9563

>  <E_stb>
0.947983

>  <E_str>
6.92685

>  <E_strain>
0.00598182

>  <E_tor>
1.8156

>  <E_vdw>
51.4493

>  <E_rele>
0

>  <E_rnb>
5.68434e-014

>  <E_rsol>
5.68434e-014

>  <E_rvdw>
0

>  <Kier1>
25.6413

>  <Kier2>
11.1709

>  <Kier3>
5.35402

>  <KierA1>
17.3674

>  <KierA2>
7.4693

>  <KierA3>
3.54752

>  <KierFlex>
3.81536

>  <logS>
-3.84499

>  <MNDO_dipole>
5.59294

>  <MNDO_E>
-139551

>  <MNDO_Eele>
-1.0928e+006

>  <MNDO_HF>
-10.9299

>  <MNDO_HOMO>
-8.89432

>  <MNDO_IP>
8.89432

>  <MNDO_LUMO>
-1.1419

>  <apol>
65.8057

>  <bpol>
34.9543

>  <mr>
12.376

>  <dipole>
1.3081

>  <dipoleX>
0.520211

>  <dipoleY>
-1.19475

>  <dipoleZ>
-0.114277

>  <pmi>
13121.6

>  <pmiX>
9218.22

>  <pmiY>
3099.08

>  <pmiZ>
804.325

>  <rgyr>
5.33818

>  <a_acc>
5

>  <a_acid>
0

>  <a_base>
0

>  <a_don>
1

>  <a_hyd>
21

>  <vsa_acc>
55.8044

>  <vsa_acid>
0

>  <vsa_base>
0

>  <vsa_don>
5.68258

>  <vsa_hyd>
307.31

>  <vsa_other>
45.5481

>  <vsa_pol>
61.487

>  <PM3_dipole>
5.04873

>  <PM3_E>
-125903

>  <PM3_Eele>
-1.08427e+006

>  <PM3_HF>
-25.8771

>  <PM3_HOMO>
-8.88817

>  <PM3_IP>
8.88817

>  <PM3_LUMO>
-1.26861

>  <SlogP>
2.36342

>  <SlogP_VSA0>
0

>  <SlogP_VSA1>
57.6789

>  <SlogP_VSA2>
49.7688

>  <SlogP_VSA3>
73.7583

>  <SlogP_VSA4>
56.8523

>  <SlogP_VSA5>
0

>  <SlogP_VSA6>
0

>  <SlogP_VSA7>
164.547

>  <SlogP_VSA8>
0

>  <SlogP_VSA9>
48.2861

>  <SMR>
12.1167

>  <SMR_VSA0>
71.5866

>  <SMR_VSA1>
56.4338

>  <SMR_VSA2>
25.9065

>  <SMR_VSA3>
9.1279

>  <SMR_VSA4>
7.04502

>  <SMR_VSA5>
157.502

>  <SMR_VSA6>
89.9635

>  <SMR_VSA7>
33.326

>  <ASA>
734.195

>  <ASA+>
301.84

>  <ASA->
266.382

>  <ASA_H>
546.852

>  <ASA_P>
187.342

>  <CASA+>
1897.97

>  <CASA->
1675.28

>  <DASA>
35.4576

>  <DCASA>
222.691

>  <FASA+>
0.411117

>  <FASA->
0.362822

>  <FASA_H>
0.744833

>  <FASA_P>
0.255167

>  <FCASA+>
2.5851

>  <FCASA->
2.28179

>  <VSA>
455.028

>  <TPSA>
104.19

>  <density>
0.788244

>  <vdw_area>
431.655

>  <vdw_vol>
584.17

>  <vsurf_A>
2.38336

>  <vsurf_CP>
0.0932528

>  <vsurf_CW1>
2.61022

>  <vsurf_CW2>
2.0586

>  <vsurf_CW3>
1.39526

>  <vsurf_CW4>
0.66661

>  <vsurf_CW5>
0.30027

>  <vsurf_CW6>
0.106362

>  <vsurf_CW7>
0.0216999

>  <vsurf_CW8>
0.00700228

>  <vsurf_D1>
1013.38

>  <vsurf_D2>
596

>  <vsurf_D3>
451.875

>  <vsurf_D4>
379.5

>  <vsurf_D5>
327.875

>  <vsurf_D6>
249.625

>  <vsurf_D7>
144.5

>  <vsurf_D8>
85.25

>  <vsurf_DD12>
0.5

>  <vsurf_DD13>
1.11803

>  <vsurf_DD23>
0.707107

>  <vsurf_DW12>
0.707107

>  <vsurf_DW13>
0.5

>  <vsurf_DW23>
0.5

>  <vsurf_EDmin1>
-2.75855

>  <vsurf_EDmin2>
-2.74819

>  <vsurf_EDmin3>
-2.74818

>  <vsurf_EWmin1>
-7.12153

>  <vsurf_EWmin2>
-6.99751

>  <vsurf_EWmin3>
-6.94761

>  <vsurf_G>
1.41583

>  <vsurf_HB1>
381.375

>  <vsurf_HB2>
453.875

>  <vsurf_HB3>
420.125

>  <vsurf_HB4>
169.75

>  <vsurf_HB5>
62

>  <vsurf_HB6>
20.125

>  <vsurf_HB7>
4.625

>  <vsurf_HB8>
1.125

>  <vsurf_HL1>
0.142462

>  <vsurf_HL2>
0.0530303

>  <vsurf_ID1>
1.16035

>  <vsurf_ID2>
1.13251

>  <vsurf_ID3>
1.31456

>  <vsurf_ID4>
1.54169

>  <vsurf_ID5>
1.74567

>  <vsurf_ID6>
1.68869

>  <vsurf_ID7>
0.908445

>  <vsurf_ID8>
0.867314

>  <vsurf_IW1>
0.0922065

>  <vsurf_IW2>
0.803508

>  <vsurf_IW3>
1.2657

>  <vsurf_IW4>
1.51643

>  <vsurf_IW5>
1.15306

>  <vsurf_IW6>
1.433

>  <vsurf_IW7>
3.45974

>  <vsurf_IW8>
5.37022

>  <vsurf_R>
1.44283

>  <vsurf_S>
668.216

>  <vsurf_V>
964.125

>  <vsurf_W1>
1595.38

>  <vsurf_W2>
956.5

>  <vsurf_W3>
511

>  <vsurf_W4>
179

>  <vsurf_W5>
64.375

>  <vsurf_W6>
20.125

>  <vsurf_W7>
4.625

>  <vsurf_W8>
1.125

>  <vsurf_Wp1>
1214

>  <vsurf_Wp2>
502.625

>  <vsurf_Wp3>
90.875

>  <vsurf_Wp4>
9.25

>  <vsurf_Wp5>
2.375

>  <vsurf_Wp6>
0

>  <vsurf_Wp7>
0

>  <vsurf_Wp8>
0

>  <dens>
1.09996

>  <glob>
0.0480865

>  <std_dim1>
5.2542

>  <std_dim2>
1.99323

>  <std_dim3>
1.15217

>  <vol>
418.625

>  <logP(o/w)>
1.88059

$$$$
D17.cdx
  MOE2008           3D

 55 59  0  0  0  0  0  0  0  0999 V2000
   -6.0170   -3.6170    1.1470 C   0  0  0  0  0  0  0  0  0  0  0  0
   -6.8990   -3.1000    1.5130 H   0  0  0  0  0  0  0  0  0  0  0  0
   -6.2220   -4.4140    0.0740 N   0  0  0  0  0  0  0  0  0  0  0  0
   -5.1800   -5.1150   -0.4720 C   0  0  0  0  0  0  0  0  0  0  0  0
   -3.9200   -4.9520    0.1460 C   0  0  0  0  0  0  0  0  0  0  0  0
   -3.6960   -4.1320    1.2560 C   0  0  0  0  0  0  0  0  0  0  0  0
   -4.7980   -3.4360    1.7740 C   0  0  0  0  0  0  0  0  0  0  0  0
   -2.7090   -5.5230   -0.1800 N   0  0  0  0  0  0  0  0  0  0  0  0
   -2.6010   -6.1670   -0.9590 H   0  0  0  0  0  0  0  0  0  0  0  0
   -1.7330   -5.0990    0.6740 C   0  0  0  0  0  0  0  0  0  0  0  0
   -0.7180   -5.4590    0.5570 H   0  0  0  0  0  0  0  0  0  0  0  0
   -2.3010   -4.2290    1.5880 C   0  0  0  0  0  0  0  0  0  0  0  0
   -1.5720   -3.5600    2.6610 C   0  0  0  0  0  0  0  0  0  0  0  0
   -0.0740   -3.7720    2.7970 C   0  0  0  0  0  0  0  0  0  0  0  0
    0.7510   -2.8700    2.1270 N   0  0  0  0  0  0  0  0  0  0  0  0
    2.2000   -3.0650    2.1690 C   0  0  0  0  0  0  0  0  0  0  0  0
    2.5670   -2.5050    3.0380 H   0  0  0  0  0  0  0  0  0  0  0  0
    2.4330   -4.1220    2.3360 H   0  0  0  0  0  0  0  0  0  0  0  0
    2.8860   -2.5680    0.8930 C   0  0  0  0  0  0  0  0  0  0  0  0
    2.5470   -3.1650    0.0390 H   0  0  0  0  0  0  0  0  0  0  0  0
    3.9700   -2.6860    0.9840 H   0  0  0  0  0  0  0  0  0  0  0  0
    2.5600   -1.1660    0.5890 N   0  0  0  0  0  0  0  0  0  0  0  0
    1.3210   -0.6360    1.1640 C   0  0  0  0  0  0  0  0  0  0  0  0
    1.5910   -0.1920    2.1290 H   0  0  0  0  0  0  0  0  0  0  0  0
    0.9270    0.1670    0.5320 H   0  0  0  0  0  0  0  0  0  0  0  0
    0.2540   -1.7150    1.3670 C   0  0  0  0  0  0  0  0  0  0  0  0
   -0.0770   -2.1010    0.3950 H   0  0  0  0  0  0  0  0  0  0  0  0
   -0.6180   -1.2860    1.8690 H   0  0  0  0  0  0  0  0  0  0  0  0
    3.3530   -0.3100   -0.1750 C   0  0  0  0  0  0  0  0  0  0  0  0
    4.5440   -0.8630   -0.8580 C   0  0  0  0  0  0  0  0  0  0  0  0
   -2.0970   -2.8050    3.4730 O   0  0  0  0  0  0  0  0  0  0  0  0
    0.3080   -4.7290    3.4620 O   0  0  0  0  0  0  0  0  0  0  0  0
    3.1340    0.8900   -0.3120 O   0  0  0  0  0  0  0  0  0  0  0  0
   -4.7160   -2.6160    2.8280 F   0  0  0  0  0  0  0  0  0  0  0  0
    5.8010   -0.3350   -0.5480 C   0  0  0  0  0  0  0  0  0  0  0  0
    5.9000    0.4540    0.1940 H   0  0  0  0  0  0  0  0  0  0  0  0
    6.9330   -0.8260   -1.1980 C   0  0  0  0  0  0  0  0  0  0  0  0
    7.9150   -0.4240   -0.9600 H   0  0  0  0  0  0  0  0  0  0  0  0
    6.8050   -1.8290   -2.1620 C   0  0  0  0  0  0  0  0  0  0  0  0
    7.6880   -2.2070   -2.6700 H   0  0  0  0  0  0  0  0  0  0  0  0
    5.5450   -2.3370   -2.4850 C   0  0  0  0  0  0  0  0  0  0  0  0
    5.4520   -3.1070   -3.2480 H   0  0  0  0  0  0  0  0  0  0  0  0
    4.4090   -1.8510   -1.8390 C   0  0  0  0  0  0  0  0  0  0  0  0
    3.4290   -2.2330   -2.1110 H   0  0  0  0  0  0  0  0  0  0  0  0
   -5.3600   -5.9680   -1.6080 N   0  0  0  0  0  0  0  0  0  0  0  0
   -6.5220   -6.2370   -2.3180 C   0  0  0  0  0  0  0  0  0  0  0  0
   -6.1640   -7.1180   -3.3180 C   0  0  0  0  0  0  0  0  0  0  0  0
   -6.8160   -7.5470   -4.0660 H   0  0  0  0  0  0  0  0  0  0  0  0
   -4.7900   -7.3290   -3.1490 C   0  0  0  0  0  0  0  0  0  0  0  0
   -4.1290   -7.9570   -3.7320 H   0  0  0  0  0  0  0  0  0  0  0  0
   -4.2870   -6.6420   -2.1250 N   0  0  0  0  0  0  0  0  0  0  0  0
   -7.8540   -5.6590   -2.0070 C   0  0  0  0  0  0  0  0  0  0  0  0
   -8.6080   -6.0290   -2.7110 H   0  0  0  0  0  0  0  0  0  0  0  0
   -7.8380   -4.5680   -2.0910 H   0  0  0  0  0  0  0  0  0  0  0  0
   -8.1800   -5.9410   -1.0010 H   0  0  0  0  0  0  0  0  0  0  0  0
  1  2  1  0  0  0  0
  1  3  1  0  0  0  0
  1  7  2  0  0  0  0
  3  4  2  0  0  0  0
  4  5  1  0  0  0  0
  4 45  1  0  0  0  0
  5  6  2  0  0  0  0
  5  8  1  0  0  0  0
  6  7  1  0  0  0  0
  6 12  1  0  0  0  0
  7 34  1  0  0  0  0
  8  9  1  0  0  0  0
  8 10  1  0  0  0  0
 10 11  1  0  0  0  0
 10 12  2  0  0  0  0
 12 13  1  0  0  0  0
 13 14  1  0  0  0  0
 13 31  2  0  0  0  0
 14 15  1  0  0  0  0
 14 32  2  0  0  0  0
 15 16  1  0  0  0  0
 15 26  1  0  0  0  0
 16 17  1  0  0  0  0
 16 18  1  0  0  0  0
 16 19  1  0  0  0  0
 19 20  1  0  0  0  0
 19 21  1  0  0  0  0
 19 22  1  0  0  0  0
 22 23  1  0  0  0  0
 22 29  1  0  0  0  0
 23 24  1  0  0  0  0
 23 25  1  0  0  0  0
 23 26  1  0  0  0  0
 26 27  1  0  0  0  0
 26 28  1  0  0  0  0
 29 30  1  0  0  0  0
 29 33  2  0  0  0  0
 30 35  1  0  0  0  0
 30 43  2  0  0  0  0
 35 36  1  0  0  0  0
 35 37  2  0  0  0  0
 37 38  1  0  0  0  0
 37 39  1  0  0  0  0
 39 40  1  0  0  0  0
 39 41  2  0  0  0  0
 41 42  1  0  0  0  0
 41 43  1  0  0  0  0
 43 44  1  0  0  0  0
 45 46  1  0  0  0  0
 45 51  1  0  0  0  0
 46 47  2  0  0  0  0
 46 52  1  0  0  0  0
 47 48  1  0  0  0  0
 47 49  1  0  0  0  0
 49 50  1  0  0  0  0
 49 51  2  0  0  0  0
 52 53  1  0  0  0  0
 52 54  1  0  0  0  0
 52 55  1  0  0  0  0
M  END
>  <Activity>
9

>  <AM1_dipole>
5.42107

>  <AM1_E>
-139402

>  <AM1_Eele>
-1.11157e+006

>  <AM1_HF>
71.1995

>  <AM1_HOMO>
-8.82978

>  <AM1_IP>
8.82978

>  <AM1_LUMO>
-1.06939

>  <diameter>
17

>  <petitjean>
0.470588

>  <petitjeanSC>
0.888889

>  <radius>
9

>  <VDistEq>
3.86578

>  <VDistMa>
9.85919

>  <weinerPath>
3720

>  <weinerPol>
59

>  <BCUT_PEOE_0>
-2.71188

>  <BCUT_PEOE_1>
-0.637244

>  <BCUT_PEOE_2>
0.674467

>  <BCUT_PEOE_3>
2.65032

>  <BCUT_SLOGP_0>
-2.86001

>  <BCUT_SLOGP_1>
-0.53808

>  <BCUT_SLOGP_2>
0.805915

>  <BCUT_SLOGP_3>
2.50329

>  <BCUT_SMR_0>
-2.43203

>  <BCUT_SMR_1>
-0.418532

>  <BCUT_SMR_2>
0.854311

>  <BCUT_SMR_3>
2.92024

>  <GCUT_PEOE_0>
-0.852353

>  <GCUT_PEOE_1>
-0.40374

>  <GCUT_PEOE_2>
0.080099

>  <GCUT_PEOE_3>
2.71329

>  <GCUT_SLOGP_0>
-0.976507

>  <GCUT_SLOGP_1>
-0.348416

>  <GCUT_SLOGP_2>
0.164454

>  <GCUT_SLOGP_3>
2.69711

>  <GCUT_SMR_0>
-0.508927

>  <GCUT_SMR_1>
-0.216057

>  <GCUT_SMR_2>
0.211334

>  <GCUT_SMR_3>
2.98401

>  <a_aro>
20

>  <a_count>
55

>  <a_IC>
95.4324

>  <a_ICM>
1.73513

>  <a_nH>
21

>  <b_1rotN>
6

>  <b_1rotR>
0.157895

>  <b_ar>
21

>  <b_count>
59

>  <b_double>
3

>  <b_rotN>
6

>  <b_rotR>
0.157895

>  <b_single>
35

>  <b_triple>
0

>  <chi0v>
18.3634

>  <chi0v_C>
14.0246

>  <chi1v>
10.7994

>  <chi1v_C>
6.36004

>  <chiral>
0

>  <chiral_u>
0

>  <nmol>
1

>  <reactive>
0

>  <rings>
5

>  <Weight>
460.469

>  <a_heavy>
34

>  <a_nB>
0

>  <a_nBr>
0

>  <a_nC>
24

>  <a_nCl>
0

>  <a_nF>
1

>  <a_nI>
0

>  <a_nN>
6

>  <a_nO>
3

>  <a_nP>
0

>  <a_nS>
0

>  <b_heavy>
38

>  <chi0>
23.8193

>  <chi0_C>
15.9659

>  <chi1>
16.4524

>  <chi1_C>
8.45193

>  <FCharge>
0

>  <VAdjEq>
0.349836

>  <VAdjMa>
6.24793

>  <zagreb>
186

>  <balabanJ>
1.17258

>  <PEOE_PC+>
2.98729

>  <PEOE_PC->
-2.98729

>  <PEOE_RPC+>
0.0987853

>  <PEOE_RPC->
0.119509

>  <PEOE_VSA+0>
91.2195

>  <PEOE_VSA+1>
117.12

>  <PEOE_VSA+2>
0

>  <PEOE_VSA+3>
28.8304

>  <PEOE_VSA+4>
0

>  <PEOE_VSA+5>
34.3576

>  <PEOE_VSA+6>
0

>  <PEOE_VSA-0>
55.5124

>  <PEOE_VSA-1>
36.7647

>  <PEOE_VSA-2>
0

>  <PEOE_VSA-3>
9.42104

>  <PEOE_VSA-4>
17.5912

>  <PEOE_VSA-5>
40.7008

>  <PEOE_VSA-6>
0.136891

>  <PEOE_VSA_FHYD>
0.785045

>  <PEOE_VSA_FNEG>
0.370961

>  <PEOE_VSA_FPNEG>
0.13536

>  <PEOE_VSA_FPOL>
0.214955

>  <PEOE_VSA_FPOS>
0.629039

>  <PEOE_VSA_FPPOS>
0.0795951

>  <PEOE_VSA_HYD>
338.868

>  <PEOE_VSA_NEG>
160.127

>  <PEOE_VSA_PNEG>
58.4289

>  <PEOE_VSA_POL>
92.7864

>  <PEOE_VSA_POS>
271.527

>  <PEOE_VSA_PPOS>
34.3576

>  <PC+>
6.318

>  <PC->
-6.319

>  <Q_PC+>
6.318

>  <Q_PC->
-6.319

>  <Q_RPC+>
0.10383

>  <Q_RPC->
0.111885

>  <Q_VSA_FHYD>
0.568668

>  <Q_VSA_FNEG>
0.402164

>  <Q_VSA_FPNEG>
0.183596

>  <Q_VSA_FPOL>
0.431332

>  <Q_VSA_FPOS>
0.597836

>  <Q_VSA_FPPOS>
0.247736

>  <Q_VSA_HYD>
245.468

>  <Q_VSA_NEG>
173.596

>  <Q_VSA_PNEG>
79.2498

>  <Q_VSA_POL>
186.186

>  <Q_VSA_POS>
258.059

>  <Q_VSA_PPOS>
106.936

>  <RPC+>
0.10383

>  <RPC->
0.111885

>  <lip_acc>
9

>  <lip_don>
1

>  <lip_druglike>
1

>  <lip_violation>
0

>  <opr_brigid>
27

>  <opr_leadlike>
0

>  <opr_nring>
5

>  <opr_nrot>
6

>  <opr_violation>
3

>  <E>
115.679

>  <E_ang>
8.30203

>  <E_ele>
41.9282

>  <E_nb>
94.6678

>  <E_oop>
0.0528996

>  <E_sol>
-18.8405

>  <E_stb>
1.02479

>  <E_str>
7.60542

>  <E_strain>
0.00482752

>  <E_tor>
4.02581

>  <E_vdw>
52.7397

>  <E_rele>
0

>  <E_rnb>
-5.68434e-014

>  <E_rsol>
-5.68434e-014

>  <E_rvdw>
0

>  <Kier1>
25.6413

>  <Kier2>
11.1709

>  <Kier3>
5.21762

>  <KierA1>
17.3674

>  <KierA2>
7.4693

>  <KierA3>
3.45714

>  <KierFlex>
3.81536

>  <logS>
-3.84499

>  <MNDO_dipole>
6.65707

>  <MNDO_E>
-139548

>  <MNDO_Eele>
-1.10585e+006

>  <MNDO_HF>
-8.28084

>  <MNDO_HOMO>
-9.17503

>  <MNDO_IP>
9.17503

>  <MNDO_LUMO>
-1.14108

>  <apol>
65.8057

>  <bpol>
34.9543

>  <mr>
12.3801

>  <dipole>
1.64903

>  <dipoleX>
0.31272

>  <dipoleY>
-0.961636

>  <dipoleZ>
-1.30259

>  <pmi>
12262

>  <pmiX>
8450.12

>  <pmiY>
2071.85

>  <pmiZ>
1740.05

>  <rgyr>
5.16037

>  <a_acc>
5

>  <a_acid>
0

>  <a_base>
0

>  <a_don>
1

>  <a_hyd>
21

>  <vsa_acc>
55.8044

>  <vsa_acid>
0

>  <vsa_base>
0

>  <vsa_don>
5.68258

>  <vsa_hyd>
307.31

>  <vsa_other>
45.5481

>  <vsa_pol>
61.487

>  <PM3_dipole>
5.24336

>  <PM3_E>
-125898

>  <PM3_Eele>
-1.086e+006

>  <PM3_HF>
-20.5762

>  <PM3_HOMO>
-8.91902

>  <PM3_IP>
8.91902

>  <PM3_LUMO>
-1.24946

>  <SlogP>
2.36342

>  <SlogP_VSA0>
0

>  <SlogP_VSA1>
57.6789

>  <SlogP_VSA2>
49.7688

>  <SlogP_VSA3>
73.7583

>  <SlogP_VSA4>
56.8523

>  <SlogP_VSA5>
0

>  <SlogP_VSA6>
0

>  <SlogP_VSA7>
164.547

>  <SlogP_VSA8>
0

>  <SlogP_VSA9>
48.2861

>  <SMR>
12.1167

>  <SMR_VSA0>
71.5866

>  <SMR_VSA1>
56.4338

>  <SMR_VSA2>
25.9065

>  <SMR_VSA3>
9.1279

>  <SMR_VSA4>
7.04502

>  <SMR_VSA5>
157.502

>  <SMR_VSA6>
89.9635

>  <SMR_VSA7>
33.326

>  <ASA>
725.327

>  <ASA+>
323.6

>  <ASA->
243.871

>  <ASA_H>
559.852

>  <ASA_P>
165.475

>  <CASA+>
2044.51

>  <CASA->
1541.02

>  <DASA>
79.7296

>  <DCASA>
503.487

>  <FASA+>
0.446144

>  <FASA->
0.336222

>  <FASA_H>
0.771861

>  <FASA_P>
0.228139

>  <FCASA+>
2.81874

>  <FCASA->
2.12459

>  <VSA>
451.936

>  <TPSA>
104.19

>  <density>
0.788244

>  <vdw_area>
431.655

>  <vdw_vol>
584.17

>  <vsurf_A>
2.95539

>  <vsurf_CP>
0.103329

>  <vsurf_CW1>
2.62097

>  <vsurf_CW2>
2.13536

>  <vsurf_CW3>
1.43081

>  <vsurf_CW4>
0.652733

>  <vsurf_CW5>
0.287333

>  <vsurf_CW6>
0.0936046

>  <vsurf_CW7>
0.0198589

>  <vsurf_CW8>
0.00635847

>  <vsurf_D1>
1018.75

>  <vsurf_D2>
602.5

>  <vsurf_D3>
450.125

>  <vsurf_D4>
377.125

>  <vsurf_D5>
319.625

>  <vsurf_D6>
252.5

>  <vsurf_D7>
148

>  <vsurf_D8>
88.875

>  <vsurf_DD12>
0.5

>  <vsurf_DD13>
0.866025

>  <vsurf_DD23>
1.22474

>  <vsurf_DW12>
0.707107

>  <vsurf_DW13>
0.707107

>  <vsurf_DW23>
1.41421

>  <vsurf_EDmin1>
-2.81466

>  <vsurf_EDmin2>
-2.73789

>  <vsurf_EDmin3>
-2.71661

>  <vsurf_EWmin1>
-7.01542

>  <vsurf_EWmin2>
-6.49846

>  <vsurf_EWmin3>
-6.49491

>  <vsurf_G>
1.39552

>  <vsurf_HB1>
366.5

>  <vsurf_HB2>
456.125

>  <vsurf_HB3>
404.625

>  <vsurf_HB4>
161.125

>  <vsurf_HB5>
57.625

>  <vsurf_HB6>
17.625

>  <vsurf_HB7>
3.875

>  <vsurf_HB8>
1.375

>  <vsurf_HL1>
0.133019

>  <vsurf_HL2>
0.0470666

>  <vsurf_ID1>
1.46853

>  <vsurf_ID2>
1.40004

>  <vsurf_ID3>
1.50621

>  <vsurf_ID4>
1.76585

>  <vsurf_ID5>
2.04578

>  <vsurf_ID6>
2.13671

>  <vsurf_ID7>
1.27298

>  <vsurf_ID8>
0.81812

>  <vsurf_IW1>
0.189784

>  <vsurf_IW2>
0.898224

>  <vsurf_IW3>
1.38584

>  <vsurf_IW4>
1.83538

>  <vsurf_IW5>
1.5343

>  <vsurf_IW6>
1.28577

>  <vsurf_IW7>
3.349

>  <vsurf_IW8>
4.78053

>  <vsurf_R>
1.45945

>  <vsurf_S>
654.697

>  <vsurf_V>
955.5

>  <vsurf_W1>
1585.25

>  <vsurf_W2>
967.375

>  <vsurf_W3>
506.875

>  <vsurf_W4>
170.625

>  <vsurf_W5>
59.875

>  <vsurf_W6>
17.75

>  <vsurf_W7>
3.875

>  <vsurf_W8>
1.375

>  <vsurf_Wp1>
1218.75

>  <vsurf_Wp2>
511.25

>  <vsurf_Wp3>
102.25

>  <vsurf_Wp4>
9.5

>  <vsurf_Wp5>
2.25

>  <vsurf_Wp6>
0.125

>  <vsurf_Wp7>
0

>  <vsurf_Wp8>
0

>  <dens>
1.10656

>  <glob>
0.05589

>  <std_dim1>
4.97656

>  <std_dim2>
2.10921

>  <std_dim3>
1.17651

>  <vol>
416.125

>  <logP(o/w)>
1.88059

$$$$
D17.cdx
  MOE2008           3D

 44 47  0  0  0  0  0  0  0  0999 V2000
   -6.6670   -8.4380   -1.7690 C   0  0  0  0  0  0  0  0  0  0  0  0
   -7.4850   -7.7370   -1.9100 H   0  0  0  0  0  0  0  0  0  0  0  0
   -6.7130   -9.5540   -2.5170 N   0  0  0  0  0  0  0  0  0  0  0  0
   -5.7100  -10.4360   -2.3610 C   0  0  0  0  0  0  0  0  0  0  0  0
   -4.7030  -10.1630   -1.4590 C   0  0  0  0  0  0  0  0  0  0  0  0
   -4.7410   -8.9830   -0.7270 C   0  0  0  0  0  0  0  0  0  0  0  0
   -5.7370   -8.0810   -0.8720 N   0  0  0  0  0  0  0  0  0  0  0  0
   -3.5740  -10.8440   -1.0880 N   0  0  0  0  0  0  0  0  0  0  0  0
   -3.2880  -11.7420   -1.4590 H   0  0  0  0  0  0  0  0  0  0  0  0
   -2.8920  -10.1230   -0.1400 C   0  0  0  0  0  0  0  0  0  0  0  0
   -1.9690  -10.5120    0.2740 H   0  0  0  0  0  0  0  0  0  0  0  0
   -3.5940   -8.9550    0.1150 C   0  0  0  0  0  0  0  0  0  0  0  0
   -3.2030   -7.9150    1.0550 C   0  0  0  0  0  0  0  0  0  0  0  0
   -1.8560   -8.0070    1.7470 C   0  0  0  0  0  0  0  0  0  0  0  0
   -0.7870   -7.3790    1.1120 N   0  0  0  0  0  0  0  0  0  0  0  0
    0.5520   -7.4960    1.6880 C   0  0  0  0  0  0  0  0  0  0  0  0
    0.6840   -6.6380    2.3580 H   0  0  0  0  0  0  0  0  0  0  0  0
    0.6230   -8.4040    2.2980 H   0  0  0  0  0  0  0  0  0  0  0  0
    1.6410   -7.4970    0.6120 C   0  0  0  0  0  0  0  0  0  0  0  0
    1.5260   -8.3820   -0.0240 H   0  0  0  0  0  0  0  0  0  0  0  0
    2.6290   -7.5390    1.0810 H   0  0  0  0  0  0  0  0  0  0  0  0
    1.5590   -6.3240   -0.2720 N   0  0  0  0  0  0  0  0  0  0  0  0
    0.2640   -5.6430   -0.3490 C   0  0  0  0  0  0  0  0  0  0  0  0
    0.2740   -4.8660    0.4250 H   0  0  0  0  0  0  0  0  0  0  0  0
    0.1610   -5.1400   -1.3170 H   0  0  0  0  0  0  0  0  0  0  0  0
   -0.9160   -6.5920   -0.1220 C   0  0  0  0  0  0  0  0  0  0  0  0
   -0.9790   -7.3130   -0.9460 H   0  0  0  0  0  0  0  0  0  0  0  0
   -1.8510   -6.0240   -0.1040 H   0  0  0  0  0  0  0  0  0  0  0  0
    2.6260   -5.8020   -1.0020 C   0  0  0  0  0  0  0  0  0  0  0  0
    3.9040   -6.5500   -1.0290 C   0  0  0  0  0  0  0  0  0  0  0  0
   -3.8930   -6.9350    1.3200 O   0  0  0  0  0  0  0  0  0  0  0  0
   -1.7930   -8.6480    2.7900 O   0  0  0  0  0  0  0  0  0  0  0  0
    2.5860   -4.7430   -1.6210 O   0  0  0  0  0  0  0  0  0  0  0  0
    3.9630   -7.8360   -1.5750 C   0  0  0  0  0  0  0  0  0  0  0  0
    3.0730   -8.3090   -1.9810 H   0  0  0  0  0  0  0  0  0  0  0  0
    5.1840   -8.5110   -1.6110 C   0  0  0  0  0  0  0  0  0  0  0  0
    5.2420   -9.5120   -2.0310 H   0  0  0  0  0  0  0  0  0  0  0  0
    6.3370   -7.8960   -1.1190 C   0  0  0  0  0  0  0  0  0  0  0  0
    7.2880   -8.4220   -1.1520 H   0  0  0  0  0  0  0  0  0  0  0  0
    6.2770   -6.6020   -0.5960 C   0  0  0  0  0  0  0  0  0  0  0  0
    7.1800   -6.1240   -0.2270 H   0  0  0  0  0  0  0  0  0  0  0  0
    5.0600   -5.9220   -0.5560 C   0  0  0  0  0  0  0  0  0  0  0  0
    5.0160   -4.9100   -0.1610 H   0  0  0  0  0  0  0  0  0  0  0  0
   -5.7810  -11.8420   -3.3260 Cl  0  0  0  0  0  0  0  0  0  0  0  0
  1  2  1  0  0  0  0
  1  3  1  0  0  0  0
  1  7  2  0  0  0  0
  3  4  2  0  0  0  0
  4  5  1  0  0  0  0
  4 44  1  0  0  0  0
  5  6  2  0  0  0  0
  5  8  1  0  0  0  0
  6  7  1  0  0  0  0
  6 12  1  0  0  0  0
  8  9  1  0  0  0  0
  8 10  1  0  0  0  0
 10 11  1  0  0  0  0
 10 12  2  0  0  0  0
 12 13  1  0  0  0  0
 13 14  1  0  0  0  0
 13 31  2  0  0  0  0
 14 15  1  0  0  0  0
 14 32  2  0  0  0  0
 15 16  1  0  0  0  0
 15 26  1  0  0  0  0
 16 17  1  0  0  0  0
 16 18  1  0  0  0  0
 16 19  1  0  0  0  0
 19 20  1  0  0  0  0
 19 21  1  0  0  0  0
 19 22  1  0  0  0  0
 22 23  1  0  0  0  0
 22 29  1  0  0  0  0
 23 24  1  0  0  0  0
 23 25  1  0  0  0  0
 23 26  1  0  0  0  0
 26 27  1  0  0  0  0
 26 28  1  0  0  0  0
 29 30  1  0  0  0  0
 29 33  2  0  0  0  0
 30 34  1  0  0  0  0
 30 42  2  0  0  0  0
 34 35  1  0  0  0  0
 34 36  2  0  0  0  0
 36 37  1  0  0  0  0
 36 38  1  0  0  0  0
 38 39  1  0  0  0  0
 38 40  2  0  0  0  0
 40 41  1  0  0  0  0
 40 42  1  0  0  0  0
 42 43  1  0  0  0  0
M  END
>  <Activity>
7.9586

>  <AM1_dipole>
6.5871

>  <AM1_E>
-115761

>  <AM1_Eele>
-831087

>  <AM1_HF>
22.0963

>  <AM1_HOMO>
-9.74544

>  <AM1_IP>
9.74544

>  <AM1_LUMO>
-1.07264

>  <diameter>
15

>  <petitjean>
0.466667

>  <petitjeanSC>
0.875

>  <radius>
8

>  <VDistEq>
3.68215

>  <VDistMa>
9.29035

>  <weinerPath>
2228

>  <weinerPol>
47

>  <BCUT_PEOE_0>
-2.71185

>  <BCUT_PEOE_1>
-0.642835

>  <BCUT_PEOE_2>
0.657083

>  <BCUT_PEOE_3>
2.65034

>  <BCUT_SLOGP_0>
-2.86001

>  <BCUT_SLOGP_1>
-0.556331

>  <BCUT_SLOGP_2>
0.758577

>  <BCUT_SLOGP_3>
2.50304

>  <BCUT_SMR_0>
-2.43203

>  <BCUT_SMR_1>
-0.444089

>  <BCUT_SMR_2>
0.81385

>  <BCUT_SMR_3>
2.92015

>  <GCUT_PEOE_0>
-0.849991

>  <GCUT_PEOE_1>
-0.418375

>  <GCUT_PEOE_2>
0.0731668

>  <GCUT_PEOE_3>
2.62687

>  <GCUT_SLOGP_0>
-0.976496

>  <GCUT_SLOGP_1>
-0.334433

>  <GCUT_SLOGP_2>
0.155533

>  <GCUT_SLOGP_3>
2.58545

>  <GCUT_SMR_0>
-0.508902

>  <GCUT_SMR_1>
-0.212985

>  <GCUT_SMR_2>
0.240942

>  <GCUT_SMR_3>
2.89304

>  <a_aro>
15

>  <a_count>
44

>  <a_IC>
79.1398

>  <a_ICM>
1.79863

>  <a_nH>
16

>  <b_1rotN>
5

>  <b_1rotR>
0.16129

>  <b_ar>
16

>  <b_count>
47

>  <b_double>
3

>  <b_rotN>
5

>  <b_rotR>
0.16129

>  <b_single>
28

>  <b_triple>
0

>  <chi0v>
15.5174

>  <chi0v_C>
10.8699

>  <chi1v>
9.09309

>  <chi1v_C>
4.69936

>  <chiral>
0

>  <chiral_u>
0

>  <nmol>
1

>  <reactive>
0

>  <rings>
4

>  <Weight>
397.822

>  <a_heavy>
28

>  <a_nB>
0

>  <a_nBr>
0

>  <a_nC>
19

>  <a_nCl>
1

>  <a_nF>
0

>  <a_nI>
0

>  <a_nN>
5

>  <a_nO>
3

>  <a_nP>
0

>  <a_nS>
0

>  <b_heavy>
31

>  <chi0>
19.673

>  <chi0_C>
12.397

>  <chi1>
13.5586

>  <chi1_C>
6.22474

>  <FCharge>
0

>  <VAdjEq>
0.398935

>  <VAdjMa>
5.9542

>  <zagreb>
150

>  <balabanJ>
1.28268

>  <PEOE_PC+>
2.63347

>  <PEOE_PC->
-2.63347

>  <PEOE_RPC+>
0.112077

>  <PEOE_RPC->
0.135325

>  <PEOE_VSA+0>
71.7238

>  <PEOE_VSA+1>
61.9239

>  <PEOE_VSA+2>
38.9014

>  <PEOE_VSA+3>
17.6298

>  <PEOE_VSA+4>
0

>  <PEOE_VSA+5>
34.3576

>  <PEOE_VSA+6>
0

>  <PEOE_VSA-0>
24.5098

>  <PEOE_VSA-1>
66.3467

>  <PEOE_VSA-2>
0

>  <PEOE_VSA-3>
0

>  <PEOE_VSA-4>
11.3652

>  <PEOE_VSA-5>
40.7008

>  <PEOE_VSA-6>
0.136891

>  <PEOE_VSA_FHYD>
0.764523

>  <PEOE_VSA_FNEG>
0.389176

>  <PEOE_VSA_FPNEG>
0.142011

>  <PEOE_VSA_FPOL>
0.235477

>  <PEOE_VSA_FPOS>
0.610824

>  <PEOE_VSA_FPPOS>
0.0934657

>  <PEOE_VSA_HYD>
281.035

>  <PEOE_VSA_NEG>
143.059

>  <PEOE_VSA_PNEG>
52.2028

>  <PEOE_VSA_POL>
86.5604

>  <PEOE_VSA_POS>
224.536

>  <PEOE_VSA_PPOS>
34.3576

>  <PC+>
5.682

>  <PC->
-5.683

>  <Q_PC+>
5.682

>  <Q_PC->
-5.683

>  <Q_RPC+>
0.115452

>  <Q_RPC->
0.116136

>  <Q_VSA_FHYD>
0.45183

>  <Q_VSA_FNEG>
0.458592

>  <Q_VSA_FPNEG>
0.187194

>  <Q_VSA_FPOL>
0.54817

>  <Q_VSA_FPOS>
0.541408

>  <Q_VSA_FPPOS>
0.360976

>  <Q_VSA_HYD>
166.091

>  <Q_VSA_NEG>
168.576

>  <Q_VSA_PNEG>
68.8118

>  <Q_VSA_POL>
201.505

>  <Q_VSA_POS>
199.019

>  <Q_VSA_PPOS>
132.693

>  <RPC+>
0.115452

>  <RPC->
0.116136

>  <lip_acc>
8

>  <lip_don>
1

>  <lip_druglike>
1

>  <lip_violation>
0

>  <opr_brigid>
22

>  <opr_leadlike>
1

>  <opr_nring>
4

>  <opr_nrot>
5

>  <opr_violation>
0

>  <E>
76.922

>  <E_ang>
6.79464

>  <E_ele>
15.7157

>  <E_nb>
60.5172

>  <E_oop>
0.0822128

>  <E_sol>
-27.3587

>  <E_stb>
0.967037

>  <E_str>
4.39037

>  <E_strain>
0.00561907

>  <E_tor>
4.17054

>  <E_vdw>
44.8015

>  <E_rele>
0

>  <E_rnb>
-1.42109e-014

>  <E_rsol>
-1.42109e-014

>  <E_rvdw>
0

>  <Kier1>
21.2404

>  <Kier2>
9.42769

>  <Kier3>
4.54179

>  <KierA1>
15.2556

>  <KierA2>
6.68167

>  <KierA3>
3.18846

>  <KierFlex>
3.64046

>  <logS>
-3.9468

>  <MNDO_dipole>
6.77655

>  <MNDO_E>
-115540

>  <MNDO_Eele>
-824299

>  <MNDO_HF>
-5.20776

>  <MNDO_HOMO>
-9.86751

>  <MNDO_IP>
9.86751

>  <MNDO_LUMO>
-1.17606

>  <apol>
54.1947

>  <bpol>
28.0453

>  <mr>
10.4295

>  <dipole>
1.6885

>  <dipoleX>
1.13724

>  <dipoleY>
-1.22748

>  <dipoleZ>
-0.225817

>  <pmi>
9015.48

>  <pmiX>
6654.09

>  <pmiY>
1424.22

>  <pmiZ>
937.169

>  <rgyr>
4.76047

>  <a_acc>
5

>  <a_acid>
0

>  <a_base>
0

>  <a_don>
1

>  <a_hyd>
15

>  <vsa_acc>
52.0659

>  <vsa_acid>
0

>  <vsa_base>
0

>  <vsa_don>
5.68258

>  <vsa_hyd>
227.938

>  <vsa_other>
68.1589

>  <vsa_pol>
57.7485

>  <PM3_dipole>
6.88386

>  <PM3_E>
-103891

>  <PM3_Eele>
-810372

>  <PM3_HF>
-19.8034

>  <PM3_HOMO>
-9.52613

>  <PM3_IP>
9.52613

>  <PM3_LUMO>
-1.12778

>  <SlogP>
1.7786

>  <SlogP_VSA0>
0

>  <SlogP_VSA1>
56.0249

>  <SlogP_VSA2>
40.6477

>  <SlogP_VSA3>
73.7583

>  <SlogP_VSA4>
54.0956

>  <SlogP_VSA5>
0

>  <SlogP_VSA6>
3.07178

>  <SlogP_VSA7>
126.504

>  <SlogP_VSA8>
0

>  <SlogP_VSA9>
39.1486

>  <SMR>
10.2155

>  <SMR_VSA0>
71.5866

>  <SMR_VSA1>
39.8197

>  <SMR_VSA2>
16.7855

>  <SMR_VSA3>
9.44293

>  <SMR_VSA4>
4.28827

>  <SMR_VSA5>
122.216

>  <SMR_VSA6>
89.9635

>  <SMR_VSA7>
39.1486

>  <ASA>
630.165

>  <ASA+>
245.611

>  <ASA->
283.506

>  <ASA_H>
399.572

>  <ASA_P>
230.593

>  <CASA+>
1395.56

>  <CASA->
1611.17

>  <DASA>
37.8953

>  <DCASA>
215.604

>  <FASA+>
0.389757

>  <FASA->
0.449892

>  <FASA_H>
0.634074

>  <FASA_P>
0.365926

>  <FCASA+>
2.2146

>  <FCASA->
2.55674

>  <VSA>
382.466

>  <TPSA>
99.26

>  <density>
0.822887

>  <vdw_area>
367.596

>  <vdw_vol>
483.447

>  <vsurf_A>
4.51937

>  <vsurf_CP>
0.0882233

>  <vsurf_CW1>
2.72438

>  <vsurf_CW2>
2.22908

>  <vsurf_CW3>
1.55306

>  <vsurf_CW4>
0.702976

>  <vsurf_CW5>
0.358754

>  <vsurf_CW6>
0.146894

>  <vsurf_CW7>
0.0394689

>  <vsurf_CW8>
0.0202977

>  <vsurf_D1>
862.625

>  <vsurf_D2>
512.25

>  <vsurf_D3>
385.375

>  <vsurf_D4>
325.25

>  <vsurf_D5>
275.625

>  <vsurf_D6>
220.625

>  <vsurf_D7>
132.125

>  <vsurf_D8>
81.25

>  <vsurf_DD12>
0.5

>  <vsurf_DD13>
1.22474

>  <vsurf_DD23>
1.65831

>  <vsurf_DW12>
0.5

>  <vsurf_DW13>
1.11803

>  <vsurf_DW23>
0.707107

>  <vsurf_EDmin1>
-2.86248

>  <vsurf_EDmin2>
-2.77278

>  <vsurf_EDmin3>
-2.75737

>  <vsurf_EWmin1>
-8.06774

>  <vsurf_EWmin2>
-7.94717

>  <vsurf_EWmin3>
-7.93958

>  <vsurf_G>
1.35372

>  <vsurf_HB1>
397.25

>  <vsurf_HB2>
474.875

>  <vsurf_HB3>
393.625

>  <vsurf_HB4>
159.25

>  <vsurf_HB5>
65.625

>  <vsurf_HB6>
22.875

>  <vsurf_HB7>
7.125

>  <vsurf_HB8>
3.625

>  <vsurf_HL1>
0.186831

>  <vsurf_HL2>
0.075711

>  <vsurf_ID1>
1.38121

>  <vsurf_ID2>
1.28948

>  <vsurf_ID3>
1.41655

>  <vsurf_ID4>
1.68073

>  <vsurf_ID5>
2.0099

>  <vsurf_ID6>
2.0937

>  <vsurf_ID7>
1.21159

>  <vsurf_ID8>
0.678302

>  <vsurf_IW1>
0.276268

>  <vsurf_IW2>
1.17326

>  <vsurf_IW3>
1.8976

>  <vsurf_IW4>
2.61312

>  <vsurf_IW5>
3.11745

>  <vsurf_IW6>
3.9864

>  <vsurf_IW7>
5.66256

>  <vsurf_IW8>
6.00334

>  <vsurf_R>
1.43091

>  <vsurf_S>
574.46

>  <vsurf_V>
822

>  <vsurf_W1>
1489

>  <vsurf_W2>
925.5

>  <vsurf_W3>
490.25

>  <vsurf_W4>
175.25

>  <vsurf_W5>
72

>  <vsurf_W6>
24.625

>  <vsurf_W7>
7.125

>  <vsurf_W8>
3.625

>  <vsurf_Wp1>
1091.75

>  <vsurf_Wp2>
450.625

>  <vsurf_Wp3>
96.625

>  <vsurf_Wp4>
16

>  <vsurf_Wp5>
6.375

>  <vsurf_Wp6>
1.75

>  <vsurf_Wp7>
0

>  <vsurf_Wp8>
0

>  <dens>
1.15061

>  <glob>
0.0855264

>  <std_dim1>
4.18979

>  <std_dim2>
1.63794

>  <std_dim3>
1.2253

>  <vol>
345.75

>  <logP(o/w)>
1.30506

$$$$
D17.cdx
  MOE2008           3D

 48 51  0  0  0  0  0  0  0  0999 V2000
   -5.9240  -12.3480   -1.5340 C   0  0  0  0  0  0  0  0  0  0  0  0
   -6.5500  -11.8130   -2.2410 H   0  0  0  0  0  0  0  0  0  0  0  0
   -6.5610  -12.9000   -0.4840 N   0  0  0  0  0  0  0  0  0  0  0  0
   -5.8130  -13.5720    0.4160 C   0  0  0  0  0  0  0  0  0  0  0  0
   -4.4500  -13.6540    0.2040 C   0  0  0  0  0  0  0  0  0  0  0  0
   -3.8780  -13.0550   -0.9080 C   0  0  0  0  0  0  0  0  0  0  0  0
   -4.6120  -12.3750   -1.8170 N   0  0  0  0  0  0  0  0  0  0  0  0
   -3.4460  -14.2470    0.9210 N   0  0  0  0  0  0  0  0  0  0  0  0
   -3.5830  -14.7660    1.7800 H   0  0  0  0  0  0  0  0  0  0  0  0
   -2.2450  -14.0270    0.2990 C   0  0  0  0  0  0  0  0  0  0  0  0
   -1.3320  -14.4220    0.7280 H   0  0  0  0  0  0  0  0  0  0  0  0
   -2.4750  -13.2860   -0.8510 C   0  0  0  0  0  0  0  0  0  0  0  0
   -1.4570  -12.8260   -1.7810 C   0  0  0  0  0  0  0  0  0  0  0  0
    0.0030  -12.9950   -1.4190 C   0  0  0  0  0  0  0  0  0  0  0  0
    0.6040  -11.9400   -0.7390 N   0  0  0  0  0  0  0  0  0  0  0  0
    1.9980  -12.0510   -0.3130 C   0  0  0  0  0  0  0  0  0  0  0  0
    1.9880  -12.1040    0.7830 H   0  0  0  0  0  0  0  0  0  0  0  0
    2.4510  -12.9760   -0.6840 H   0  0  0  0  0  0  0  0  0  0  0  0
    2.8280  -10.8420   -0.7690 C   0  0  0  0  0  0  0  0  0  0  0  0
    2.9410  -10.8510   -1.8590 H   0  0  0  0  0  0  0  0  0  0  0  0
    3.8220  -10.9110   -0.3220 H   0  0  0  0  0  0  0  0  0  0  0  0
    2.1590   -9.5770   -0.4210 N   0  0  0  0  0  0  0  0  0  0  0  0
    0.7640   -9.4760   -0.8600 C   0  0  0  0  0  0  0  0  0  0  0  0
    0.3040   -8.5460   -0.5120 H   0  0  0  0  0  0  0  0  0  0  0  0
    0.7800   -9.4460   -1.9560 H   0  0  0  0  0  0  0  0  0  0  0  0
   -0.0580  -10.6760   -0.3820 C   0  0  0  0  0  0  0  0  0  0  0  0
   -1.0680  -10.6150   -0.7930 H   0  0  0  0  0  0  0  0  0  0  0  0
   -0.1430  -10.6640    0.7110 H   0  0  0  0  0  0  0  0  0  0  0  0
    2.7290   -8.5150    0.2760 C   0  0  0  0  0  0  0  0  0  0  0  0
    4.1850   -8.5350    0.5420 C   0  0  0  0  0  0  0  0  0  0  0  0
   -1.6990  -12.2670   -2.8470 O   0  0  0  0  0  0  0  0  0  0  0  0
    0.5430  -14.0520   -1.7240 O   0  0  0  0  0  0  0  0  0  0  0  0
    2.1030   -7.5460    0.6950 O   0  0  0  0  0  0  0  0  0  0  0  0
    5.0970   -8.5310   -0.5190 C   0  0  0  0  0  0  0  0  0  0  0  0
    4.7490   -8.5320   -1.5490 H   0  0  0  0  0  0  0  0  0  0  0  0
    6.4650   -8.5180   -0.2480 C   0  0  0  0  0  0  0  0  0  0  0  0
    7.1820   -8.5200   -1.0650 H   0  0  0  0  0  0  0  0  0  0  0  0
    6.9150   -8.4930    1.0740 C   0  0  0  0  0  0  0  0  0  0  0  0
    7.9820   -8.4790    1.2830 H   0  0  0  0  0  0  0  0  0  0  0  0
    6.0000   -8.4730    2.1300 C   0  0  0  0  0  0  0  0  0  0  0  0
    6.3560   -8.4400    3.1560 H   0  0  0  0  0  0  0  0  0  0  0  0
    4.6310   -8.4870    1.8660 C   0  0  0  0  0  0  0  0  0  0  0  0
    3.9170   -8.4600    2.6850 H   0  0  0  0  0  0  0  0  0  0  0  0
   -6.3860  -14.1570    1.5260 O   0  0  0  0  0  0  0  0  0  0  0  0
   -7.7970  -13.9840    1.5790 C   0  0  0  0  0  0  0  0  0  0  0  0
   -8.1610  -14.4830    2.4830 H   0  0  0  0  0  0  0  0  0  0  0  0
   -8.2880  -14.4550    0.7190 H   0  0  0  0  0  0  0  0  0  0  0  0
   -8.0650  -12.9250    1.6520 H   0  0  0  0  0  0  0  0  0  0  0  0
  1  2  1  0  0  0  0
  1  3  1  0  0  0  0
  1  7  2  0  0  0  0
  3  4  2  0  0  0  0
  4  5  1  0  0  0  0
  4 44  1  0  0  0  0
  5  6  2  0  0  0  0
  5  8  1  0  0  0  0
  6  7  1  0  0  0  0
  6 12  1  0  0  0  0
  8  9  1  0  0  0  0
  8 10  1  0  0  0  0
 10 11  1  0  0  0  0
 10 12  2  0  0  0  0
 12 13  1  0  0  0  0
 13 14  1  0  0  0  0
 13 31  2  0  0  0  0
 14 15  1  0  0  0  0
 14 32  2  0  0  0  0
 15 16  1  0  0  0  0
 15 26  1  0  0  0  0
 16 17  1  0  0  0  0
 16 18  1  0  0  0  0
 16 19  1  0  0  0  0
 19 20  1  0  0  0  0
 19 21  1  0  0  0  0
 19 22  1  0  0  0  0
 22 23  1  0  0  0  0
 22 29  1  0  0  0  0
 23 24  1  0  0  0  0
 23 25  1  0  0  0  0
 23 26  1  0  0  0  0
 26 27  1  0  0  0  0
 26 28  1  0  0  0  0
 29 30  1  0  0  0  0
 29 33  2  0  0  0  0
 30 34  1  0  0  0  0
 30 42  2  0  0  0  0
 34 35  1  0  0  0  0
 34 36  2  0  0  0  0
 36 37  1  0  0  0  0
 36 38  1  0  0  0  0
 38 39  1  0  0  0  0
 38 40  2  0  0  0  0
 40 41  1  0  0  0  0
 40 42  1  0  0  0  0
 42 43  1  0  0  0  0
 44 45  1  0  0  0  0
 45 46  1  0  0  0  0
 45 47  1  0  0  0  0
 45 48  1  0  0  0  0
M  END
>  <Activity>
8.3872

>  <AM1_dipole>
5.6532

>  <AM1_E>
-118435

>  <AM1_Eele>
-878505

>  <AM1_HF>
-12.569

>  <AM1_HOMO>
-9.42598

>  <AM1_IP>
9.42598

>  <AM1_LUMO>
-0.69281

>  <diameter>
16

>  <petitjean>
0.5

>  <petitjeanSC>
1

>  <radius>
8

>  <VDistEq>
3.73149

>  <VDistMa>
9.39237

>  <weinerPath>
2461

>  <weinerPol>
49

>  <BCUT_PEOE_0>
-2.71185

>  <BCUT_PEOE_1>
-0.637818

>  <BCUT_PEOE_2>
0.615323

>  <BCUT_PEOE_3>
2.65036

>  <BCUT_SLOGP_0>
-2.86001

>  <BCUT_SLOGP_1>
-0.552709

>  <BCUT_SLOGP_2>
0.711238

>  <BCUT_SLOGP_3>
2.50311

>  <BCUT_SMR_0>
-2.43203

>  <BCUT_SMR_1>
-0.415323

>  <BCUT_SMR_2>
0.772421

>  <BCUT_SMR_3>
2.92015

>  <GCUT_PEOE_0>
-0.848186

>  <GCUT_PEOE_1>
-0.424946

>  <GCUT_PEOE_2>
0.0657567

>  <GCUT_PEOE_3>
2.64756

>  <GCUT_SLOGP_0>
-0.976502

>  <GCUT_SLOGP_1>
-0.374014

>  <GCUT_SLOGP_2>
0.146613

>  <GCUT_SLOGP_3>
2.60922

>  <GCUT_SMR_0>
-0.508914

>  <GCUT_SMR_1>
-0.214435

>  <GCUT_SMR_2>
0.20758

>  <GCUT_SMR_3>
2.91169

>  <a_aro>
15

>  <a_count>
48

>  <a_IC>
81.3194

>  <a_ICM>
1.69415

>  <a_nH>
19

>  <b_1rotN>
6

>  <b_1rotR>
0.1875

>  <b_ar>
16

>  <b_count>
51

>  <b_double>
3

>  <b_rotN>
6

>  <b_rotR>
0.1875

>  <b_single>
32

>  <b_triple>
0

>  <chi0v>
15.7917

>  <chi0v_C>
11.8699

>  <chi1v>
9.13851

>  <chi1v_C>
4.69936

>  <chiral>
0

>  <chiral_u>
0

>  <nmol>
1

>  <reactive>
0

>  <rings>
4

>  <Weight>
393.403

>  <a_heavy>
29

>  <a_nB>
0

>  <a_nBr>
0

>  <a_nC>
20

>  <a_nCl>
0

>  <a_nF>
0

>  <a_nI>
0

>  <a_nN>
5

>  <a_nO>
4

>  <a_nP>
0

>  <a_nS>
0

>  <b_heavy>
32

>  <chi0>
20.3801

>  <chi0_C>
13.397

>  <chi1>
14.0966

>  <chi1_C>
6.22474

>  <FCharge>
0

>  <VAdjEq>
0.388286

>  <VAdjMa>
6

>  <zagreb>
154

>  <balabanJ>
1.28524

>  <PEOE_PC+>
2.89102

>  <PEOE_PC->
-2.89102

>  <PEOE_RPC+>
0.102092

>  <PEOE_RPC->
0.122954

>  <PEOE_VSA+0>
96.7214

>  <PEOE_VSA+1>
74.7201

>  <PEOE_VSA+2>
38.9014

>  <PEOE_VSA+3>
21.5685

>  <PEOE_VSA+4>
0

>  <PEOE_VSA+5>
34.3576

>  <PEOE_VSA+6>
0

>  <PEOE_VSA-0>
24.5098

>  <PEOE_VSA-1>
36.7647

>  <PEOE_VSA-2>
0

>  <PEOE_VSA-3>
0

>  <PEOE_VSA-4>
11.3652

>  <PEOE_VSA-5>
40.7008

>  <PEOE_VSA-6>
2.64065

>  <PEOE_VSA_FHYD>
0.767

>  <PEOE_VSA_FNEG>
0.303417

>  <PEOE_VSA_FPNEG>
0.143117

>  <PEOE_VSA_FPOL>
0.233

>  <PEOE_VSA_FPOS>
0.696583

>  <PEOE_VSA_FPPOS>
0.0898825

>  <PEOE_VSA_HYD>
293.186

>  <PEOE_VSA_NEG>
115.981

>  <PEOE_VSA_PNEG>
54.7066

>  <PEOE_VSA_POL>
89.0641

>  <PEOE_VSA_POS>
266.269

>  <PEOE_VSA_PPOS>
34.3576

>  <PC+>
5.867

>  <PC->
-5.869

>  <Q_PC+>
5.867

>  <Q_PC->
-5.869

>  <Q_RPC+>
0.111812

>  <Q_RPC->
0.112455

>  <Q_VSA_FHYD>
0.390595

>  <Q_VSA_FNEG>
0.370172

>  <Q_VSA_FPNEG>
0.186568

>  <Q_VSA_FPOL>
0.609405

>  <Q_VSA_FPOS>
0.629828

>  <Q_VSA_FPPOS>
0.422837

>  <Q_VSA_HYD>
149.305

>  <Q_VSA_NEG>
141.498

>  <Q_VSA_PNEG>
71.3156

>  <Q_VSA_POL>
232.945

>  <Q_VSA_POS>
240.752

>  <Q_VSA_PPOS>
161.63

>  <RPC+>
0.111812

>  <RPC->
0.112455

>  <lip_acc>
9

>  <lip_don>
1

>  <lip_druglike>
1

>  <lip_violation>
0

>  <opr_brigid>
22

>  <opr_leadlike>
1

>  <opr_nring>
4

>  <opr_nrot>
6

>  <opr_violation>
1

>  <E>
78.6595

>  <E_ang>
10.4618

>  <E_ele>
9.92006

>  <E_nb>
60.5044

>  <E_oop>
0.0651754

>  <E_sol>
-23.9226

>  <E_stb>
1.1309

>  <E_str>
4.41657

>  <E_strain>
0.00467732

>  <E_tor>
2.0807

>  <E_vdw>
50.5843

>  <E_rele>
0

>  <E_rnb>
0

>  <E_rsol>
0

>  <E_rvdw>
0

>  <Kier1>
22.2031

>  <Kier2>
10.08

>  <Kier3>
4.76896

>  <KierA1>
15.2935

>  <KierA2>
6.84268

>  <KierA3>
3.20265

>  <KierFlex>
3.60856

>  <logS>
-3.26289

>  <MNDO_dipole>
6.34952

>  <MNDO_E>
-118728

>  <MNDO_Eele>
-871455

>  <MNDO_HF>
-46.2697

>  <MNDO_HOMO>
-9.44923

>  <MNDO_IP>
9.44923

>  <MNDO_LUMO>
-0.73319

>  <apol>
56.5771

>  <bpol>
32.8209

>  <mr>
10.575

>  <dipole>
1.30744

>  <dipoleX>
0.408951

>  <dipoleY>
-0.566575

>  <dipoleZ>
1.10505

>  <pmi>
9589.97

>  <pmiX>
7004.02

>  <pmiY>
1978.51

>  <pmiZ>
607.437

>  <rgyr>
4.9373

>  <a_acc>
5

>  <a_acid>
0

>  <a_base>
0

>  <a_don>
1

>  <a_hyd>
15

>  <vsa_acc>
52.0659

>  <vsa_acid>
0

>  <vsa_base>
0

>  <vsa_don>
5.68258

>  <vsa_hyd>
234.015

>  <vsa_other>
74.6014

>  <vsa_pol>
57.7485

>  <PM3_dipole>
6.46932

>  <PM3_E>
-107162

>  <PM3_Eele>
-867492

>  <PM3_HF>
-59.0672

>  <PM3_HOMO>
-9.29212

>  <PM3_IP>
9.29212

>  <PM3_LUMO>
-0.80116

>  <SlogP>
1.1338

>  <SlogP_VSA0>
10.9999

>  <SlogP_VSA1>
56.0249

>  <SlogP_VSA2>
40.6477

>  <SlogP_VSA3>
73.7583

>  <SlogP_VSA4>
54.0956

>  <SlogP_VSA5>
35.3839

>  <SlogP_VSA6>
0

>  <SlogP_VSA7>
126.504

>  <SlogP_VSA8>
0

>  <SlogP_VSA9>
4.8146

>  <SMR>
10.3697

>  <SMR_VSA0>
71.5866

>  <SMR_VSA1>
50.8196

>  <SMR_VSA2>
16.7855

>  <SMR_VSA3>
11.1858

>  <SMR_VSA4>
4.28827

>  <SMR_VSA5>
122.216

>  <SMR_VSA6>
89.9635

>  <SMR_VSA7>
35.3839

>  <ASA>
654.177

>  <ASA+>
279.868

>  <ASA->
213.432

>  <ASA_H>
394.188

>  <ASA_P>
259.989

>  <CASA+>
1641.99

>  <CASA->
1252.63

>  <DASA>
66.4367

>  <DCASA>
389.357

>  <FASA+>
0.427817

>  <FASA->
0.32626

>  <FASA_H>
0.602571

>  <FASA_P>
0.397429

>  <FCASA+>
2.51

>  <FCASA->
1.91482

>  <VSA>
398.394

>  <TPSA>
108.49

>  <density>
0.782765

>  <vdw_area>
382.25

>  <vdw_vol>
502.581

>  <vsurf_A>
3.35256

>  <vsurf_CP>
0.0768451

>  <vsurf_CW1>
2.68083

>  <vsurf_CW2>
2.19381

>  <vsurf_CW3>
1.48543

>  <vsurf_CW4>
0.709226

>  <vsurf_CW5>
0.366908

>  <vsurf_CW6>
0.158625

>  <vsurf_CW7>
0.0503421

>  <vsurf_CW8>
0.0199207

>  <vsurf_D1>
857.375

>  <vsurf_D2>
515.75

>  <vsurf_D3>
386.5

>  <vsurf_D4>
323.25

>  <vsurf_D5>
271

>  <vsurf_D6>
209.625

>  <vsurf_D7>
127.125

>  <vsurf_D8>
71.125

>  <vsurf_DD12>
0.707107

>  <vsurf_DD13>
0.707107

>  <vsurf_DD23>
1.41421

>  <vsurf_DW12>
0.866025

>  <vsurf_DW13>
0.5

>  <vsurf_DW23>
1.22474

>  <vsurf_EDmin1>
-2.86029

>  <vsurf_EDmin2>
-2.80546

>  <vsurf_EDmin3>
-2.79755

>  <vsurf_EWmin1>
-8.62075

>  <vsurf_EWmin2>
-8.1393

>  <vsurf_EWmin3>
-8.10107

>  <vsurf_G>
1.37305

>  <vsurf_HB1>
376.25

>  <vsurf_HB2>
458

>  <vsurf_HB3>
402.375

>  <vsurf_HB4>
168.375

>  <vsurf_HB5>
68.75

>  <vsurf_HB6>
27.375

>  <vsurf_HB7>
9.375

>  <vsurf_HB8>
3

>  <vsurf_HL1>
0.194696

>  <vsurf_HL2>
0.0889404

>  <vsurf_ID1>
1.03144

>  <vsurf_ID2>
0.886482

>  <vsurf_ID3>
0.969406

>  <vsurf_ID4>
1.31145

>  <vsurf_ID5>
1.76785

>  <vsurf_ID6>
2.1267

>  <vsurf_ID7>
1.20458

>  <vsurf_ID8>
0.77428

>  <vsurf_IW1>
0.267195

>  <vsurf_IW2>
1.09862

>  <vsurf_IW3>
1.68098

>  <vsurf_IW4>
2.08345

>  <vsurf_IW5>
2.42376

>  <vsurf_IW6>
3.25348

>  <vsurf_IW7>
4.04129

>  <vsurf_IW8>
5.27351

>  <vsurf_R>
1.42197

>  <vsurf_S>
591.961

>  <vsurf_V>
841.75

>  <vsurf_W1>
1470.38

>  <vsurf_W2>
915.375

>  <vsurf_W3>
489.25

>  <vsurf_W4>
183.5

>  <vsurf_W5>
75.25

>  <vsurf_W6>
28.75

>  <vsurf_W7>
9.375

>  <vsurf_W8>
3

>  <vsurf_Wp1>
1094.13

>  <vsurf_Wp2>
457.375

>  <vsurf_Wp3>
86.875

>  <vsurf_Wp4>
15.125

>  <vsurf_Wp5>
6.5

>  <vsurf_Wp6>
1.375

>  <vsurf_Wp7>
0

>  <vsurf_Wp8>
0

>  <dens>
1.09317

>  <glob>
0.0635851

>  <std_dim1>
4.94468

>  <std_dim2>
1.39085

>  <std_dim3>
1.24685

>  <vol>
359.875

>  <logP(o/w)>
0.66906

$$$$
D17.cdx
  MOE2008           3D

 51 54  0  0  0  0  0  0  0  0999 V2000
   -5.8700  -15.4030    0.2590 C   0  0  0  0  0  0  0  0  0  0  0  0
   -6.6290  -14.6450    0.0930 H   0  0  0  0  0  0  0  0  0  0  0  0
   -6.2180  -16.6640   -0.0610 N   0  0  0  0  0  0  0  0  0  0  0  0
   -5.2990  -17.6330    0.1320 C   0  0  0  0  0  0  0  0  0  0  0  0
   -4.0660  -17.2720    0.6430 C   0  0  0  0  0  0  0  0  0  0  0  0
   -3.7940  -15.9460    0.9450 C   0  0  0  0  0  0  0  0  0  0  0  0
   -4.7040  -14.9640    0.7560 N   0  0  0  0  0  0  0  0  0  0  0  0
   -2.9480  -18.0050    0.9360 N   0  0  0  0  0  0  0  0  0  0  0  0
   -2.8700  -19.0080    0.8180 H   0  0  0  0  0  0  0  0  0  0  0  0
   -1.9640  -17.1740    1.4070 C   0  0  0  0  0  0  0  0  0  0  0  0
   -1.0000  -17.5800    1.6880 H   0  0  0  0  0  0  0  0  0  0  0  0
   -2.4570  -15.8770    1.4280 C   0  0  0  0  0  0  0  0  0  0  0  0
   -1.7190  -14.6960    1.8410 C   0  0  0  0  0  0  0  0  0  0  0  0
   -0.2340  -14.8130    2.1150 C   0  0  0  0  0  0  0  0  0  0  0  0
    0.6180  -14.5850    1.0380 N   0  0  0  0  0  0  0  0  0  0  0  0
    2.0630  -14.7310    1.2130 C   0  0  0  0  0  0  0  0  0  0  0  0
    2.3160  -14.9250    2.2600 H   0  0  0  0  0  0  0  0  0  0  0  0
    2.3610  -15.6120    0.6310 H   0  0  0  0  0  0  0  0  0  0  0  0
    2.8240  -13.4950    0.7110 C   0  0  0  0  0  0  0  0  0  0  0  0
    3.8940  -13.7040    0.7460 H   0  0  0  0  0  0  0  0  0  0  0  0
    2.6210  -12.6370    1.3630 H   0  0  0  0  0  0  0  0  0  0  0  0
    2.3840  -13.1140   -0.6420 N   0  0  0  0  0  0  0  0  0  0  0  0
    0.9350  -12.9610   -0.8000 C   0  0  0  0  0  0  0  0  0  0  0  0
    0.6430  -12.0930   -0.1980 H   0  0  0  0  0  0  0  0  0  0  0  0
    0.6690  -12.7460   -1.8400 H   0  0  0  0  0  0  0  0  0  0  0  0
    0.1890  -14.2080   -0.3170 C   0  0  0  0  0  0  0  0  0  0  0  0
    0.4180  -15.0600   -0.9680 H   0  0  0  0  0  0  0  0  0  0  0  0
   -0.8880  -14.0320   -0.3690 H   0  0  0  0  0  0  0  0  0  0  0  0
    3.2120  -12.9070   -1.7420 C   0  0  0  0  0  0  0  0  0  0  0  0
    4.6770  -12.8670   -1.5360 C   0  0  0  0  0  0  0  0  0  0  0  0
   -2.2130  -13.5780    1.9550 O   0  0  0  0  0  0  0  0  0  0  0  0
    0.1110  -15.1260    3.2480 O   0  0  0  0  0  0  0  0  0  0  0  0
    2.8100  -12.7530   -2.8920 O   0  0  0  0  0  0  0  0  0  0  0  0
    5.4800  -13.7860   -2.2170 C   0  0  0  0  0  0  0  0  0  0  0  0
    5.0310  -14.5320   -2.8680 H   0  0  0  0  0  0  0  0  0  0  0  0
    6.8650  -13.7390   -2.0570 C   0  0  0  0  0  0  0  0  0  0  0  0
    7.4980  -14.4520   -2.5790 H   0  0  0  0  0  0  0  0  0  0  0  0
    7.4400  -12.7700   -1.2320 C   0  0  0  0  0  0  0  0  0  0  0  0
    8.5200  -12.7340   -1.1110 H   0  0  0  0  0  0  0  0  0  0  0  0
    6.6350  -11.8390   -0.5710 C   0  0  0  0  0  0  0  0  0  0  0  0
    7.0900  -11.0800    0.0600 H   0  0  0  0  0  0  0  0  0  0  0  0
    5.2500  -11.8790   -0.7270 C   0  0  0  0  0  0  0  0  0  0  0  0
    4.6270  -11.1430   -0.2260 H   0  0  0  0  0  0  0  0  0  0  0  0
   -5.5640  -18.9480   -0.1850 O   0  0  0  0  0  0  0  0  0  0  0  0
   -6.8870  -19.1980   -0.6610 C   0  0  0  0  0  0  0  0  0  0  0  0
   -7.1020  -20.2490   -0.4370 H   0  0  0  0  0  0  0  0  0  0  0  0
   -7.6470  -18.6140   -0.1270 H   0  0  0  0  0  0  0  0  0  0  0  0
   -6.9670  -19.0020   -2.1660 C   0  0  0  0  0  0  0  0  0  0  0  0
   -6.2160  -19.6170   -2.6730 H   0  0  0  0  0  0  0  0  0  0  0  0
   -6.7680  -17.9630   -2.4440 H   0  0  0  0  0  0  0  0  0  0  0  0
   -7.9580  -19.2770   -2.5390 H   0  0  0  0  0  0  0  0  0  0  0  0
  1  2  1  0  0  0  0
  1  3  1  0  0  0  0
  1  7  2  0  0  0  0
  3  4  2  0  0  0  0
  4  5  1  0  0  0  0
  4 44  1  0  0  0  0
  5  6  2  0  0  0  0
  5  8  1  0  0  0  0
  6  7  1  0  0  0  0
  6 12  1  0  0  0  0
  8  9  1  0  0  0  0
  8 10  1  0  0  0  0
 10 11  1  0  0  0  0
 10 12  2  0  0  0  0
 12 13  1  0  0  0  0
 13 14  1  0  0  0  0
 13 31  2  0  0  0  0
 14 15  1  0  0  0  0
 14 32  2  0  0  0  0
 15 16  1  0  0  0  0
 15 26  1  0  0  0  0
 16 17  1  0  0  0  0
 16 18  1  0  0  0  0
 16 19  1  0  0  0  0
 19 20  1  0  0  0  0
 19 21  1  0  0  0  0
 19 22  1  0  0  0  0
 22 23  1  0  0  0  0
 22 29  1  0  0  0  0
 23 24  1  0  0  0  0
 23 25  1  0  0  0  0
 23 26  1  0  0  0  0
 26 27  1  0  0  0  0
 26 28  1  0  0  0  0
 29 30  1  0  0  0  0
 29 33  2  0  0  0  0
 30 34  1  0  0  0  0
 30 42  2  0  0  0  0
 34 35  1  0  0  0  0
 34 36  2  0  0  0  0
 36 37  1  0  0  0  0
 36 38  1  0  0  0  0
 38 39  1  0  0  0  0
 38 40  2  0  0  0  0
 40 41  1  0  0  0  0
 40 42  1  0  0  0  0
 42 43  1  0  0  0  0
 44 45  1  0  0  0  0
 45 46  1  0  0  0  0
 45 47  1  0  0  0  0
 45 48  1  0  0  0  0
 48 49  1  0  0  0  0
 48 50  1  0  0  0  0
 48 51  1  0  0  0  0
M  END
>  <Activity>
7.9208

>  <AM1_dipole>
5.84142

>  <AM1_E>
-122027

>  <AM1_Eele>
-928794

>  <AM1_HF>
-18.1467

>  <AM1_HOMO>
-9.39082

>  <AM1_IP>
9.39082

>  <AM1_LUMO>
-0.67579

>  <diameter>
17

>  <petitjean>
0.470588

>  <petitjeanSC>
0.888889

>  <radius>
9

>  <VDistEq>
3.78992

>  <VDistMa>
9.49016

>  <weinerPath>
2723

>  <weinerPol>
50

>  <BCUT_PEOE_0>
-2.71185

>  <BCUT_PEOE_1>
-0.635455

>  <BCUT_PEOE_2>
0.615323

>  <BCUT_PEOE_3>
2.65036

>  <BCUT_SLOGP_0>
-2.86001

>  <BCUT_SLOGP_1>
-0.55037

>  <BCUT_SLOGP_2>
0.711238

>  <BCUT_SLOGP_3>
2.50315

>  <BCUT_SMR_0>
-2.43203

>  <BCUT_SMR_1>
-0.41509

>  <BCUT_SMR_2>
0.772291

>  <BCUT_SMR_3>
2.92016

>  <GCUT_PEOE_0>
-0.848246

>  <GCUT_PEOE_1>
-0.412049

>  <GCUT_PEOE_2>
0.0657541

>  <GCUT_PEOE_3>
2.6613

>  <GCUT_SLOGP_0>
-0.976503

>  <GCUT_SLOGP_1>
-0.371543

>  <GCUT_SLOGP_2>
0.146613

>  <GCUT_SLOGP_3>
2.62772

>  <GCUT_SMR_0>
-0.513659

>  <GCUT_SMR_1>
-0.213728

>  <GCUT_SMR_2>
0.207042

>  <GCUT_SMR_3>
2.92506

>  <a_aro>
15

>  <a_count>
51

>  <a_IC>
85.2067

>  <a_ICM>
1.67072

>  <a_nH>
21

>  <b_1rotN>
7

>  <b_1rotR>
0.212121

>  <b_ar>
16

>  <b_count>
54

>  <b_double>
3

>  <b_rotN>
7

>  <b_rotR>
0.212121

>  <b_single>
35

>  <b_triple>
0

>  <chi0v>
16.4988

>  <chi0v_C>
12.577

>  <chi1v>
9.72605

>  <chi1v_C>
5.40647

>  <chiral>
0

>  <chiral_u>
0

>  <nmol>
1

>  <reactive>
0

>  <rings>
4

>  <Weight>
407.43

>  <a_heavy>
30

>  <a_nB>
0

>  <a_nBr>
0

>  <a_nC>
21

>  <a_nCl>
0

>  <a_nF>
0

>  <a_nI>
0

>  <a_nN>
5

>  <a_nO>
4

>  <a_nP>
0

>  <a_nS>
0

>  <b_heavy>
33

>  <chi0>
21.0872

>  <chi0_C>
14.1041

>  <chi1>
14.5966

>  <chi1_C>
6.93185

>  <FCharge>
0

>  <VAdjEq>
0.378242

>  <VAdjMa>
6.04439

>  <zagreb>
158

>  <balabanJ>
1.28206

>  <PEOE_PC+>
2.92898

>  <PEOE_PC->
-2.92898

>  <PEOE_RPC+>
0.100769

>  <PEOE_RPC->
0.121361

>  <PEOE_VSA+0>
84.5199

>  <PEOE_VSA+1>
85.406

>  <PEOE_VSA+2>
38.9014

>  <PEOE_VSA+3>
21.5685

>  <PEOE_VSA+4>
0

>  <PEOE_VSA+5>
34.3576

>  <PEOE_VSA+6>
0

>  <PEOE_VSA-0>
43.2575

>  <PEOE_VSA-1>
36.7647

>  <PEOE_VSA-2>
0

>  <PEOE_VSA-3>
0

>  <PEOE_VSA-4>
11.3652

>  <PEOE_VSA-5>
40.7008

>  <PEOE_VSA-6>
2.64065

>  <PEOE_VSA_FHYD>
0.777051

>  <PEOE_VSA_FNEG>
0.337258

>  <PEOE_VSA_FPNEG>
0.136944

>  <PEOE_VSA_FPOL>
0.222949

>  <PEOE_VSA_FPOS>
0.662742

>  <PEOE_VSA_FPPOS>
0.0860053

>  <PEOE_VSA_HYD>
310.418

>  <PEOE_VSA_NEG>
134.729

>  <PEOE_VSA_PNEG>
54.7066

>  <PEOE_VSA_POL>
89.0641

>  <PEOE_VSA_POS>
264.753

>  <PEOE_VSA_PPOS>
34.3576

>  <PC+>
5.867

>  <PC->
-5.869

>  <Q_PC+>
5.867

>  <Q_PC->
-5.869

>  <Q_RPC+>
0.111812

>  <Q_RPC->
0.112455

>  <Q_VSA_FHYD>
0.442031

>  <Q_VSA_FNEG>
0.354204

>  <Q_VSA_FPNEG>
0.17852

>  <Q_VSA_FPOL>
0.557969

>  <Q_VSA_FPOS>
0.645796

>  <Q_VSA_FPPOS>
0.379449

>  <Q_VSA_HYD>
176.583

>  <Q_VSA_NEG>
141.498

>  <Q_VSA_PNEG>
71.3156

>  <Q_VSA_POL>
222.899

>  <Q_VSA_POS>
257.984

>  <Q_VSA_PPOS>
151.583

>  <RPC+>
0.111812

>  <RPC->
0.112455

>  <lip_acc>
9

>  <lip_don>
1

>  <lip_druglike>
1

>  <lip_violation>
0

>  <opr_brigid>
22

>  <opr_leadlike>
1

>  <opr_nring>
4

>  <opr_nrot>
7

>  <opr_violation>
1

>  <E>
78.3293

>  <E_ang>
11.8547

>  <E_ele>
10.0816

>  <E_nb>
61.1444

>  <E_oop>
0.0681202

>  <E_sol>
-23.5488

>  <E_stb>
1.18426

>  <E_str>
4.51877

>  <E_strain>
0.0052041

>  <E_tor>
-0.440982

>  <E_vdw>
51.0629

>  <E_rele>
0

>  <E_rnb>
2.84217e-014

>  <E_rsol>
2.84217e-014

>  <E_rvdw>
0

>  <Kier1>
23.168

>  <Kier2>
10.7448

>  <Kier3>
5.16797

>  <KierA1>
16.1752

>  <KierA2>
7.401

>  <KierA3>
3.52572

>  <KierFlex>
3.99042

>  <logS>
-3.5901

>  <MNDO_dipole>
6.40565

>  <MNDO_E>
-122335

>  <MNDO_Eele>
-919236

>  <MNDO_HF>
-50.6723

>  <MNDO_HOMO>
-9.4165

>  <MNDO_IP>
9.4165

>  <MNDO_LUMO>
-0.70231

>  <apol>
59.6707

>  <bpol>
35.0073

>  <mr>
11.0467

>  <dipole>
1.32122

>  <dipoleX>
0.664075

>  <dipoleY>
-1.13916

>  <dipoleZ>
-0.0832382

>  <pmi>
10521.5

>  <pmiX>
7700.22

>  <pmiY>
1907.02

>  <pmiZ>
914.238

>  <rgyr>
5.08173

>  <a_acc>
5

>  <a_acid>
0

>  <a_base>
0

>  <a_don>
1

>  <a_hyd>
16

>  <vsa_acc>
52.0659

>  <vsa_acid>
0

>  <vsa_base>
0

>  <vsa_don>
5.68258

>  <vsa_hyd>
249.823

>  <vsa_other>
74.6014

>  <vsa_pol>
57.7485

>  <PM3_dipole>
6.43538

>  <PM3_E>
-110610

>  <PM3_Eele>
-916271

>  <PM3_HF>
-64.2439

>  <PM3_HOMO>
-9.26816

>  <PM3_IP>
9.26816

>  <PM3_LUMO>
-0.79405

>  <SlogP>
1.5239

>  <SlogP_VSA0>
10.9999

>  <SlogP_VSA1>
56.0249

>  <SlogP_VSA2>
40.6477

>  <SlogP_VSA3>
94.6846

>  <SlogP_VSA4>
54.0956

>  <SlogP_VSA5>
0

>  <SlogP_VSA6>
0

>  <SlogP_VSA7>
126.504

>  <SlogP_VSA8>
0

>  <SlogP_VSA9>
38.1406

>  <SMR>
10.8314

>  <SMR_VSA0>
71.5866

>  <SMR_VSA1>
50.8196

>  <SMR_VSA2>
16.7855

>  <SMR_VSA3>
11.1858

>  <SMR_VSA4>
4.28827

>  <SMR_VSA5>
122.216

>  <SMR_VSA6>
110.89

>  <SMR_VSA7>
33.326

>  <ASA>
683.695

>  <ASA+>
260.615

>  <ASA->
210.224

>  <ASA_H>
446.107

>  <ASA_P>
237.588

>  <CASA+>
1529.03

>  <CASA->
1233.8

>  <DASA>
50.3913

>  <DCASA>
295.225

>  <FASA+>
0.381186

>  <FASA->
0.307482

>  <FASA_H>
0.652495

>  <FASA_P>
0.347505

>  <FCASA+>
2.23642

>  <FCASA->
1.80461

>  <VSA>
416.2

>  <TPSA>
108.49

>  <density>
0.773097

>  <vdw_area>
399.482

>  <vdw_vol>
527.011

>  <vsurf_A>
3.08424

>  <vsurf_CP>
0.0786488

>  <vsurf_CW1>
2.6364

>  <vsurf_CW2>
2.07361

>  <vsurf_CW3>
1.40419

>  <vsurf_CW4>
0.671443

>  <vsurf_CW5>
0.350163

>  <vsurf_CW6>
0.150926

>  <vsurf_CW7>
0.0476645

>  <vsurf_CW8>
0.0202826

>  <vsurf_D1>
894.125

>  <vsurf_D2>
535.5

>  <vsurf_D3>
405.875

>  <vsurf_D4>
345.875

>  <vsurf_D5>
290.625

>  <vsurf_D6>
215.875

>  <vsurf_D7>
129.625

>  <vsurf_D8>
72.75

>  <vsurf_DD12>
0.707107

>  <vsurf_DD13>
0.5

>  <vsurf_DD23>
1.11803

>  <vsurf_DW12>
1.22474

>  <vsurf_DW13>
0.707107

>  <vsurf_DW23>
0.707107

>  <vsurf_EDmin1>
-2.88852

>  <vsurf_EDmin2>
-2.78832

>  <vsurf_EDmin3>
-2.75869

>  <vsurf_EWmin1>
-8.6624

>  <vsurf_EWmin2>
-8.37769

>  <vsurf_EWmin3>
-8.35724

>  <vsurf_G>
1.39576

>  <vsurf_HB1>
367.875

>  <vsurf_HB2>
442.25

>  <vsurf_HB3>
391.125

>  <vsurf_HB4>
166.375

>  <vsurf_HB5>
71

>  <vsurf_HB6>
26.75

>  <vsurf_HB7>
9

>  <vsurf_HB8>
3.625

>  <vsurf_HL1>
0.190638

>  <vsurf_HL2>
0.0827611

>  <vsurf_ID1>
0.974365

>  <vsurf_ID2>
0.852017

>  <vsurf_ID3>
0.940377

>  <vsurf_ID4>
1.12067

>  <vsurf_ID5>
1.43139

>  <vsurf_ID6>
1.94803

>  <vsurf_ID7>
1.29366

>  <vsurf_ID8>
0.590139

>  <vsurf_IW1>
0.113192

>  <vsurf_IW2>
0.865597

>  <vsurf_IW3>
1.43463

>  <vsurf_IW4>
1.82151

>  <vsurf_IW5>
2.23464

>  <vsurf_IW6>
2.78944

>  <vsurf_IW7>
4.11825

>  <vsurf_IW8>
4.97206

>  <vsurf_R>
1.42085

>  <vsurf_S>
620.844

>  <vsurf_V>
882.125

>  <vsurf_W1>
1486.38

>  <vsurf_W2>
906.375

>  <vsurf_W3>
483

>  <vsurf_W4>
182.5

>  <vsurf_W5>
77.375

>  <vsurf_W6>
28.625

>  <vsurf_W7>
9

>  <vsurf_W8>
3.625

>  <vsurf_Wp1>
1118.5

>  <vsurf_Wp2>
464.125

>  <vsurf_Wp3>
91.875

>  <vsurf_Wp4>
16.125

>  <vsurf_Wp5>
6.375

>  <vsurf_Wp6>
1.875

>  <vsurf_Wp7>
0

>  <vsurf_Wp8>
0

>  <dens>
1.08395

>  <glob>
0.0584495

>  <std_dim1>
5.15662

>  <std_dim2>
1.54031

>  <std_dim3>
1.24668

>  <vol>
375.875

>  <logP(o/w)>
1.01006

$$$$
D17.cdx
  MOE2008           3D

 45 48  0  0  0  0  0  0  0  0999 V2000
   -6.1510  -19.1930   -1.1880 C   0  0  0  0  0  0  0  0  0  0  0  0
   -6.8940  -18.5030   -1.5730 H   0  0  0  0  0  0  0  0  0  0  0  0
   -6.3470  -20.4930   -1.4720 N   0  0  0  0  0  0  0  0  0  0  0  0
   -5.4400  -21.3810   -1.0100 C   0  0  0  0  0  0  0  0  0  0  0  0
   -4.3620  -20.9070   -0.2760 C   0  0  0  0  0  0  0  0  0  0  0  0
   -4.2460  -19.5430   -0.0260 C   0  0  0  0  0  0  0  0  0  0  0  0
   -5.1480  -18.6480   -0.4870 N   0  0  0  0  0  0  0  0  0  0  0  0
   -3.2870  -21.5200    0.3200 N   0  0  0  0  0  0  0  0  0  0  0  0
   -3.1030  -22.5160    0.3170 H   0  0  0  0  0  0  0  0  0  0  0  0
   -2.4930  -20.5770    0.9270 C   0  0  0  0  0  0  0  0  0  0  0  0
   -1.5960  -20.8820    1.4520 H   0  0  0  0  0  0  0  0  0  0  0  0
   -3.0700  -19.3300    0.7480 C   0  0  0  0  0  0  0  0  0  0  0  0
   -2.5630  -18.0630    1.2570 C   0  0  0  0  0  0  0  0  0  0  0  0
   -1.1760  -17.9880    1.8720 C   0  0  0  0  0  0  0  0  0  0  0  0
   -0.1540  -17.4910    1.0630 N   0  0  0  0  0  0  0  0  0  0  0  0
    1.2090  -17.4310    1.5900 C   0  0  0  0  0  0  0  0  0  0  0  0
    1.3320  -16.4360    2.0340 H   0  0  0  0  0  0  0  0  0  0  0  0
    1.3380  -18.1670    2.3910 H   0  0  0  0  0  0  0  0  0  0  0  0
    2.2570  -17.6540    0.4950 C   0  0  0  0  0  0  0  0  0  0  0  0
    2.1520  -18.6680    0.0920 H   0  0  0  0  0  0  0  0  0  0  0  0
    3.2630  -17.5550    0.9150 H   0  0  0  0  0  0  0  0  0  0  0  0
    2.0960  -16.7260   -0.6350 N   0  0  0  0  0  0  0  0  0  0  0  0
    0.7770  -16.1120   -0.8040 C   0  0  0  0  0  0  0  0  0  0  0  0
    0.7910  -15.1800   -0.2270 H   0  0  0  0  0  0  0  0  0  0  0  0
    0.6180  -15.8450   -1.8540 H   0  0  0  0  0  0  0  0  0  0  0  0
   -0.3590  -17.0150   -0.3130 C   0  0  0  0  0  0  0  0  0  0  0  0
   -0.4270  -17.9090   -0.9440 H   0  0  0  0  0  0  0  0  0  0  0  0
   -1.3100  -16.4810   -0.3880 H   0  0  0  0  0  0  0  0  0  0  0  0
    3.1130  -16.3700   -1.5200 C   0  0  0  0  0  0  0  0  0  0  0  0
    4.4020  -17.0950   -1.4490 C   0  0  0  0  0  0  0  0  0  0  0  0
   -3.1980  -17.0120    1.2160 O   0  0  0  0  0  0  0  0  0  0  0  0
   -1.0420  -18.3780    3.0270 O   0  0  0  0  0  0  0  0  0  0  0  0
    3.0180  -15.4780   -2.3590 O   0  0  0  0  0  0  0  0  0  0  0  0
    4.4560  -18.4730   -1.6870 C   0  0  0  0  0  0  0  0  0  0  0  0
    3.5540  -19.0320   -1.9220 H   0  0  0  0  0  0  0  0  0  0  0  0
    5.6850  -19.1300   -1.6370 C   0  0  0  0  0  0  0  0  0  0  0  0
    5.7380  -20.2010   -1.8180 H   0  0  0  0  0  0  0  0  0  0  0  0
    6.8520  -18.4120   -1.3670 C   0  0  0  0  0  0  0  0  0  0  0  0
    7.8090  -18.9260   -1.3320 H   0  0  0  0  0  0  0  0  0  0  0  0
    6.7960  -17.0330   -1.1540 C   0  0  0  0  0  0  0  0  0  0  0  0
    7.7090  -16.4770   -0.9570 H   0  0  0  0  0  0  0  0  0  0  0  0
    5.5700  -16.3690   -1.2010 C   0  0  0  0  0  0  0  0  0  0  0  0
    5.5280  -15.2940   -1.0470 H   0  0  0  0  0  0  0  0  0  0  0  0
   -5.6660  -22.7600   -1.3170 C   0  0  0  0  0  0  0  0  0  0  0  0
   -5.8250  -23.8860   -1.5530 N   0  0  0  0  0  0  0  0  0  0  0  0
  1  2  1  0  0  0  0
  1  3  1  0  0  0  0
  1  7  2  0  0  0  0
  3  4  2  0  0  0  0
  4  5  1  0  0  0  0
  4 44  1  0  0  0  0
  5  6  2  0  0  0  0
  5  8  1  0  0  0  0
  6  7  1  0  0  0  0
  6 12  1  0  0  0  0
  8  9  1  0  0  0  0
  8 10  1  0  0  0  0
 10 11  1  0  0  0  0
 10 12  2  0  0  0  0
 12 13  1  0  0  0  0
 13 14  1  0  0  0  0
 13 31  2  0  0  0  0
 14 15  1  0  0  0  0
 14 32  2  0  0  0  0
 15 16  1  0  0  0  0
 15 26  1  0  0  0  0
 16 17  1  0  0  0  0
 16 18  1  0  0  0  0
 16 19  1  0  0  0  0
 19 20  1  0  0  0  0
 19 21  1  0  0  0  0
 19 22  1  0  0  0  0
 22 23  1  0  0  0  0
 22 29  1  0  0  0  0
 23 24  1  0  0  0  0
 23 25  1  0  0  0  0
 23 26  1  0  0  0  0
 26 27  1  0  0  0  0
 26 28  1  0  0  0  0
 29 30  1  0  0  0  0
 29 33  2  0  0  0  0
 30 34  1  0  0  0  0
 30 42  2  0  0  0  0
 34 35  1  0  0  0  0
 34 36  2  0  0  0  0
 36 37  1  0  0  0  0
 36 38  1  0  0  0  0
 38 39  1  0  0  0  0
 38 40  2  0  0  0  0
 40 41  1  0  0  0  0
 40 42  1  0  0  0  0
 42 43  1  0  0  0  0
 44 45  3  0  0  0  0
M  END
>  <Activity>
7.3565

>  <AM1_dipole>
5.72846

>  <AM1_E>
-114844

>  <AM1_Eele>
-842646

>  <AM1_HF>
68.0453

>  <AM1_HOMO>
-9.7625

>  <AM1_IP>
9.7625

>  <AM1_LUMO>
-1.44533

>  <diameter>
16

>  <petitjean>
0.5

>  <petitjeanSC>
1

>  <radius>
8

>  <VDistEq>
3.73149

>  <VDistMa>
9.39237

>  <weinerPath>
2461

>  <weinerPol>
49

>  <BCUT_PEOE_0>
-2.71185

>  <BCUT_PEOE_1>
-0.643601

>  <BCUT_PEOE_2>
0.615325

>  <BCUT_PEOE_3>
2.65035

>  <BCUT_SLOGP_0>
-2.86001

>  <BCUT_SLOGP_1>
-0.557825

>  <BCUT_SLOGP_2>
0.711239

>  <BCUT_SLOGP_3>
2.50299

>  <BCUT_SMR_0>
-2.43203

>  <BCUT_SMR_1>
-0.416131

>  <BCUT_SMR_2>
0.774785

>  <BCUT_SMR_3>
2.92015

>  <GCUT_PEOE_0>
-0.85024

>  <GCUT_PEOE_1>
-0.425835

>  <GCUT_PEOE_2>
0.0728417

>  <GCUT_PEOE_3>
2.63395

>  <GCUT_SLOGP_0>
-0.9765

>  <GCUT_SLOGP_1>
-0.376499

>  <GCUT_SLOGP_2>
0.146613

>  <GCUT_SLOGP_3>
2.58545

>  <GCUT_SMR_0>
-0.508904

>  <GCUT_SMR_1>
-0.214654

>  <GCUT_SMR_2>
0.233734

>  <GCUT_SMR_3>
2.89847

>  <a_aro>
15

>  <a_count>
45

>  <a_IC>
76.4302

>  <a_ICM>
1.69845

>  <a_nH>
16

>  <b_1rotN>
5

>  <b_1rotR>
0.15625

>  <b_ar>
16

>  <b_count>
48

>  <b_double>
3

>  <b_rotN>
6

>  <b_rotR>
0.1875

>  <b_single>
28

>  <b_triple>
1

>  <chi0v>
15.3307

>  <chi0v_C>
11.3699

>  <chi1v>
8.99975

>  <chi1v_C>
4.94936

>  <chiral>
0

>  <chiral_u>
0

>  <nmol>
1

>  <reactive>
0

>  <rings>
4

>  <Weight>
388.387

>  <a_heavy>
29

>  <a_nB>
0

>  <a_nBr>
0

>  <a_nC>
20

>  <a_nCl>
0

>  <a_nF>
0

>  <a_nI>
0

>  <a_nN>
6

>  <a_nO>
3

>  <a_nP>
0

>  <a_nS>
0

>  <b_heavy>
32

>  <chi0>
20.3801

>  <chi0_C>
13.1041

>  <chi1>
14.0966

>  <chi1_C>
6.63299

>  <FCharge>
0

>  <VAdjEq>
0.388286

>  <VAdjMa>
6

>  <zagreb>
154

>  <balabanJ>
1.28538

>  <PEOE_PC+>
2.76421

>  <PEOE_PC->
-2.76421

>  <PEOE_RPC+>
0.106776

>  <PEOE_RPC->
0.128974

>  <PEOE_VSA+0>
71.7238

>  <PEOE_VSA+1>
61.9239

>  <PEOE_VSA+2>
59.2009

>  <PEOE_VSA+3>
15.3186

>  <PEOE_VSA+4>
0

>  <PEOE_VSA+5>
34.3576

>  <PEOE_VSA+6>
0

>  <PEOE_VSA-0>
24.5098

>  <PEOE_VSA-1>
36.7647

>  <PEOE_VSA-2>
0

>  <PEOE_VSA-3>
17.7425

>  <PEOE_VSA-4>
11.3652

>  <PEOE_VSA-5>
40.7008

>  <PEOE_VSA-6>
0.136891

>  <PEOE_VSA_FHYD>
0.768397

>  <PEOE_VSA_FNEG>
0.351095

>  <PEOE_VSA_FPNEG>
0.139675

>  <PEOE_VSA_FPOL>
0.231603

>  <PEOE_VSA_FPOS>
0.648905

>  <PEOE_VSA_FPPOS>
0.091928

>  <PEOE_VSA_HYD>
287.184

>  <PEOE_VSA_NEG>
131.22

>  <PEOE_VSA_PNEG>
52.2028

>  <PEOE_VSA_POL>
86.5604

>  <PEOE_VSA_POS>
242.525

>  <PEOE_VSA_PPOS>
34.3576

>  <PC+>
6.062

>  <PC->
-6.063

>  <Q_PC+>
6.062

>  <Q_PC->
-6.063

>  <Q_RPC+>
0.108215

>  <Q_RPC->
0.108857

>  <Q_VSA_FHYD>
0.365246

>  <Q_VSA_FNEG>
0.419369

>  <Q_VSA_FPNEG>
0.231587

>  <Q_VSA_FPOL>
0.634754

>  <Q_VSA_FPOS>
0.580631

>  <Q_VSA_FPPOS>
0.403167

>  <Q_VSA_HYD>
136.509

>  <Q_VSA_NEG>
156.737

>  <Q_VSA_PNEG>
86.5543

>  <Q_VSA_POL>
237.236

>  <Q_VSA_POS>
217.008

>  <Q_VSA_PPOS>
150.681

>  <RPC+>
0.108215

>  <RPC->
0.108857

>  <lip_acc>
9

>  <lip_don>
1

>  <lip_druglike>
1

>  <lip_violation>
0

>  <opr_brigid>
22

>  <opr_leadlike>
1

>  <opr_nring>
4

>  <opr_nrot>
6

>  <opr_violation>
1

>  <E>
88.7209

>  <E_ang>
6.95327

>  <E_ele>
26.4587

>  <E_nb>
71.4512

>  <E_oop>
0.0550155

>  <E_sol>
-30.021

>  <E_stb>
1.20044

>  <E_str>
4.72604

>  <E_strain>
0.00471538

>  <E_tor>
4.33497

>  <E_vdw>
44.9925

>  <E_rele>
0

>  <E_rnb>
-2.70006e-013

>  <E_rsol>
-2.70006e-013

>  <E_rvdw>
0

>  <Kier1>
22.2031

>  <Kier2>
10.08

>  <Kier3>
4.76896

>  <KierA1>
14.4299

>  <KierA2>
6.44051

>  <KierA3>
3.00892

>  <KierFlex>
3.20468

>  <logS>
-3.4051

>  <MNDO_dipole>
6.18448

>  <MNDO_E>
-115062

>  <MNDO_Eele>
-837517

>  <MNDO_HF>
33.5965

>  <MNDO_HOMO>
-9.87001

>  <MNDO_IP>
9.87001

>  <MNDO_LUMO>
-1.48649

>  <apol>
54.8747

>  <bpol>
28.2853

>  <mr>
10.5042

>  <dipole>
1.4249

>  <dipoleX>
1.126

>  <dipoleY>
-0.844665

>  <dipoleZ>
0.221413

>  <pmi>
8961.89

>  <pmiX>
6619.27

>  <pmiY>
1646.91

>  <pmiZ>
695.701

>  <rgyr>
4.80361

>  <a_acc>
6

>  <a_acid>
0

>  <a_base>
0

>  <a_don>
1

>  <a_hyd>
15

>  <vsa_acc>
69.8084

>  <vsa_acid>
0

>  <vsa_base>
0

>  <vsa_don>
5.68258

>  <vsa_hyd>
205.056

>  <vsa_other>
79.4476

>  <vsa_pol>
75.491

>  <PM3_dipole>
5.59013

>  <PM3_E>
-103033

>  <PM3_Eele>
-822767

>  <PM3_HF>
24.2337

>  <PM3_HOMO>
-9.64438

>  <PM3_IP>
9.64438

>  <PM3_LUMO>
-1.57399

>  <SlogP>
0.996884

>  <SlogP_VSA0>
0

>  <SlogP_VSA1>
56.0249

>  <SlogP_VSA2>
40.6477

>  <SlogP_VSA3>
121.419

>  <SlogP_VSA4>
56.8523

>  <SlogP_VSA5>
0

>  <SlogP_VSA6>
0

>  <SlogP_VSA7>
126.504

>  <SlogP_VSA8>
0

>  <SlogP_VSA9>
0

>  <SMR>
10.186

>  <SMR_VSA0>
71.5866

>  <SMR_VSA1>
70.879

>  <SMR_VSA2>
16.7855

>  <SMR_VSA3>
25.7296

>  <SMR_VSA4>
4.28827

>  <SMR_VSA5>
122.216

>  <SMR_VSA6>
89.9635

>  <SMR_VSA7>
0

>  <ASA>
638.916

>  <ASA+>
277.057

>  <ASA->
259.167

>  <ASA_H>
332.381

>  <ASA_P>
306.536

>  <CASA+>
1679.52

>  <CASA->
1571.33

>  <DASA>
17.8908

>  <DCASA>
108.195

>  <FASA+>
0.433636

>  <FASA->
0.405635

>  <FASA_H>
0.520226

>  <FASA_P>
0.479774

>  <FCASA+>
2.6287

>  <FCASA->
2.45936

>  <VSA>
388.521

>  <TPSA>
123.05

>  <density>
0.78793

>  <vdw_area>
373.745

>  <vdw_vol>
492.921

>  <vsurf_A>
4.29203

>  <vsurf_CP>
0.0755518

>  <vsurf_CW1>
2.78035

>  <vsurf_CW2>
2.36591

>  <vsurf_CW3>
1.74824

>  <vsurf_CW4>
0.818881

>  <vsurf_CW5>
0.402354

>  <vsurf_CW6>
0.164542

>  <vsurf_CW7>
0.0437039

>  <vsurf_CW8>
0.0190363

>  <vsurf_D1>
863.875

>  <vsurf_D2>
520.875

>  <vsurf_D3>
388.75

>  <vsurf_D4>
320.25

>  <vsurf_D5>
266.125

>  <vsurf_D6>
212

>  <vsurf_D7>
136.75

>  <vsurf_D8>
86.75

>  <vsurf_DD12>
0.5

>  <vsurf_DD13>
0.866025

>  <vsurf_DD23>
1.22474

>  <vsurf_DW12>
0.866025

>  <vsurf_DW13>
0.5

>  <vsurf_DW23>
0.707107

>  <vsurf_EDmin1>
-2.77249

>  <vsurf_EDmin2>
-2.76316

>  <vsurf_EDmin3>
-2.75723

>  <vsurf_EWmin1>
-8.14167

>  <vsurf_EWmin2>
-7.87355

>  <vsurf_EWmin3>
-7.82393

>  <vsurf_G>
1.37159

>  <vsurf_HB1>
457.875

>  <vsurf_HB2>
562.75

>  <vsurf_HB3>
471.625

>  <vsurf_HB4>
190

>  <vsurf_HB5>
73.75

>  <vsurf_HB6>
25

>  <vsurf_HB7>
8

>  <vsurf_HB8>
3.125

>  <vsurf_HL1>
0.20836

>  <vsurf_HL2>
0.0846995

>  <vsurf_ID1>
1.25704

>  <vsurf_ID2>
1.17872

>  <vsurf_ID3>
1.26179

>  <vsurf_ID4>
1.6365

>  <vsurf_ID5>
1.99811

>  <vsurf_ID6>
2.09951

>  <vsurf_ID7>
1.18117

>  <vsurf_ID8>
1.27499

>  <vsurf_IW1>
1.0157

>  <vsurf_IW2>
1.84155

>  <vsurf_IW3>
2.41311

>  <vsurf_IW4>
2.82701

>  <vsurf_IW5>
3.22607

>  <vsurf_IW6>
3.91559

>  <vsurf_IW7>
5.38914

>  <vsurf_IW8>
5.80664

>  <vsurf_R>
1.41669

>  <vsurf_S>
585.696

>  <vsurf_V>
829.75

>  <vsurf_W1>
1604.75

>  <vsurf_W2>
1046.5

>  <vsurf_W3>
573.75

>  <vsurf_W4>
206.625

>  <vsurf_W5>
81

>  <vsurf_W6>
27.125

>  <vsurf_W7>
8

>  <vsurf_W8>
3.125

>  <vsurf_Wp1>
1146.88

>  <vsurf_Wp2>
483.75

>  <vsurf_Wp3>
102.125

>  <vsurf_Wp4>
16.625

>  <vsurf_Wp5>
7.25

>  <vsurf_Wp6>
2.125

>  <vsurf_Wp7>
0

>  <vsurf_Wp8>
0

>  <dens>
1.10376

>  <glob>
0.0818041

>  <std_dim1>
4.34831

>  <std_dim2>
1.69097

>  <std_dim3>
1.24368

>  <vol>
351.875

>  <logP(o/w)>
-0.07094

$$$$
D17.cdx
  MOE2008           3D

 49 52  0  0  0  0  0  0  0  0999 V2000
   -5.8210  -22.5740   -0.5740 C   0  0  0  0  0  0  0  0  0  0  0  0
   -6.6890  -21.9270   -0.6530 H   0  0  0  0  0  0  0  0  0  0  0  0
   -5.9000  -23.7500   -1.2280 N   0  0  0  0  0  0  0  0  0  0  0  0
   -4.8350  -24.5790   -1.1510 C   0  0  0  0  0  0  0  0  0  0  0  0
   -3.7400  -24.1700   -0.4070 C   0  0  0  0  0  0  0  0  0  0  0  0
   -3.7470  -22.9430    0.2380 C   0  0  0  0  0  0  0  0  0  0  0  0
   -4.8040  -22.1030    0.1640 N   0  0  0  0  0  0  0  0  0  0  0  0
   -2.5350  -24.7700   -0.1470 N   0  0  0  0  0  0  0  0  0  0  0  0
   -2.2660  -25.6820   -0.5040 H   0  0  0  0  0  0  0  0  0  0  0  0
   -1.7780  -23.9540    0.6530 C   0  0  0  0  0  0  0  0  0  0  0  0
   -0.7910  -24.2700    0.9670 H   0  0  0  0  0  0  0  0  0  0  0  0
   -2.5040  -22.8010    0.9170 C   0  0  0  0  0  0  0  0  0  0  0  0
   -2.0500  -21.6790    1.7240 C   0  0  0  0  0  0  0  0  0  0  0  0
   -0.6370  -21.6880    2.2770 C   0  0  0  0  0  0  0  0  0  0  0  0
    0.3460  -21.1000    1.4840 N   0  0  0  0  0  0  0  0  0  0  0  0
    1.7420  -21.1620    1.9140 C   0  0  0  0  0  0  0  0  0  0  0  0
    1.9390  -20.2450    2.4820 H   0  0  0  0  0  0  0  0  0  0  0  0
    1.8920  -22.0090    2.5930 H   0  0  0  0  0  0  0  0  0  0  0  0
    2.7010  -21.2640    0.7240 C   0  0  0  0  0  0  0  0  0  0  0  0
    2.5210  -22.2050    0.1910 H   0  0  0  0  0  0  0  0  0  0  0  0
    3.7360  -21.2620    1.0770 H   0  0  0  0  0  0  0  0  0  0  0  0
    2.5060  -20.1780   -0.2500 N   0  0  0  0  0  0  0  0  0  0  0  0
    1.2110  -19.4940   -0.2260 C   0  0  0  0  0  0  0  0  0  0  0  0
    1.3130  -18.6580    0.4770 H   0  0  0  0  0  0  0  0  0  0  0  0
    0.9910  -19.0670   -1.2110 H   0  0  0  0  0  0  0  0  0  0  0  0
    0.0680  -20.4110    0.2160 C   0  0  0  0  0  0  0  0  0  0  0  0
   -0.0930  -21.1940   -0.5360 H   0  0  0  0  0  0  0  0  0  0  0  0
   -0.8590  -19.8370    0.3020 H   0  0  0  0  0  0  0  0  0  0  0  0
    3.4700  -19.7430   -1.1580 C   0  0  0  0  0  0  0  0  0  0  0  0
    4.7310  -20.5110   -1.2790 C   0  0  0  0  0  0  0  0  0  0  0  0
   -2.7370  -20.6950    1.9800 O   0  0  0  0  0  0  0  0  0  0  0  0
   -0.4510  -22.2360    3.3570 O   0  0  0  0  0  0  0  0  0  0  0  0
    3.3520  -18.7480   -1.8660 O   0  0  0  0  0  0  0  0  0  0  0  0
    4.7150  -21.8430   -1.7050 C   0  0  0  0  0  0  0  0  0  0  0  0
    3.7780  -22.3380   -1.9460 H   0  0  0  0  0  0  0  0  0  0  0  0
    5.9180  -22.5360   -1.8350 C   0  0  0  0  0  0  0  0  0  0  0  0
    5.9190  -23.5730   -2.1640 H   0  0  0  0  0  0  0  0  0  0  0  0
    7.1280  -21.8960   -1.5570 C   0  0  0  0  0  0  0  0  0  0  0  0
    8.0650  -22.4370   -1.6630 H   0  0  0  0  0  0  0  0  0  0  0  0
    7.1400  -20.5590   -1.1540 C   0  0  0  0  0  0  0  0  0  0  0  0
    8.0850  -20.0620   -0.9520 H   0  0  0  0  0  0  0  0  0  0  0  0
    5.9410  -19.8600   -1.0210 C   0  0  0  0  0  0  0  0  0  0  0  0
    5.9510  -18.8150   -0.7200 H   0  0  0  0  0  0  0  0  0  0  0  0
   -4.9050  -25.8690   -1.8720 C   0  0  0  0  0  0  0  0  0  0  0  0
   -6.1670  -26.1940   -2.6180 C   0  0  0  0  0  0  0  0  0  0  0  0
   -6.3240  -25.4720   -3.4240 H   0  0  0  0  0  0  0  0  0  0  0  0
   -7.0200  -26.1990   -1.9350 H   0  0  0  0  0  0  0  0  0  0  0  0
   -6.0780  -27.1910   -3.0600 H   0  0  0  0  0  0  0  0  0  0  0  0
   -3.9340  -26.6230   -1.8400 O   0  0  0  0  0  0  0  0  0  0  0  0
  1  2  1  0  0  0  0
  1  3  1  0  0  0  0
  1  7  2  0  0  0  0
  3  4  2  0  0  0  0
  4  5  1  0  0  0  0
  4 44  1  0  0  0  0
  5  6  2  0  0  0  0
  5  8  1  0  0  0  0
  6  7  1  0  0  0  0
  6 12  1  0  0  0  0
  8  9  1  0  0  0  0
  8 10  1  0  0  0  0
 10 11  1  0  0  0  0
 10 12  2  0  0  0  0
 12 13  1  0  0  0  0
 13 14  1  0  0  0  0
 13 31  2  0  0  0  0
 14 15  1  0  0  0  0
 14 32  2  0  0  0  0
 15 16  1  0  0  0  0
 15 26  1  0  0  0  0
 16 17  1  0  0  0  0
 16 18  1  0  0  0  0
 16 19  1  0  0  0  0
 19 20  1  0  0  0  0
 19 21  1  0  0  0  0
 19 22  1  0  0  0  0
 22 23  1  0  0  0  0
 22 29  1  0  0  0  0
 23 24  1  0  0  0  0
 23 25  1  0  0  0  0
 23 26  1  0  0  0  0
 26 27  1  0  0  0  0
 26 28  1  0  0  0  0
 29 30  1  0  0  0  0
 29 33  2  0  0  0  0
 30 34  1  0  0  0  0
 30 42  2  0  0  0  0
 34 35  1  0  0  0  0
 34 36  2  0  0  0  0
 36 37  1  0  0  0  0
 36 38  1  0  0  0  0
 38 39  1  0  0  0  0
 38 40  2  0  0  0  0
 40 41  1  0  0  0  0
 40 42  1  0  0  0  0
 42 43  1  0  0  0  0
 44 45  1  0  0  0  0
 44 49  2  0  0  0  0
 45 46  1  0  0  0  0
 45 47  1  0  0  0  0
 45 48  1  0  0  0  0
M  END
>  <Activity>
7.7447

>  <AM1_dipole>
4.7775

>  <AM1_E>
-121388

>  <AM1_Eele>
-918283

>  <AM1_HF>
-9.3965

>  <AM1_HOMO>
-9.70764

>  <AM1_IP>
9.70764

>  <AM1_LUMO>
-1.37383

>  <diameter>
16

>  <petitjean>
0.5

>  <petitjeanSC>
1

>  <radius>
8

>  <VDistEq>
3.76436

>  <VDistMa>
9.49106

>  <weinerPath>
2696

>  <weinerPol>
51

>  <BCUT_PEOE_0>
-2.71185

>  <BCUT_PEOE_1>
-0.645426

>  <BCUT_PEOE_2>
0.573565

>  <BCUT_PEOE_3>
2.65036

>  <BCUT_SLOGP_0>
-2.86001

>  <BCUT_SLOGP_1>
-0.53808

>  <BCUT_SLOGP_2>
0.663901

>  <BCUT_SLOGP_3>
2.50302

>  <BCUT_SMR_0>
-2.43203

>  <BCUT_SMR_1>
-0.386611

>  <BCUT_SMR_2>
0.734923

>  <BCUT_SMR_3>
2.92017

>  <GCUT_PEOE_0>
-0.851493

>  <GCUT_PEOE_1>
-0.403744

>  <GCUT_PEOE_2>
0.0629753

>  <GCUT_PEOE_3>
2.6602

>  <GCUT_SLOGP_0>
-0.976505

>  <GCUT_SLOGP_1>
-0.350384

>  <GCUT_SLOGP_2>
0.137692

>  <GCUT_SLOGP_3>
2.61577

>  <GCUT_SMR_0>
-0.50891

>  <GCUT_SMR_1>
-0.216057

>  <GCUT_SMR_2>
0.193051

>  <GCUT_SMR_3>
2.92603

>  <a_aro>
15

>  <a_count>
49

>  <a_IC>
82.5619

>  <a_ICM>
1.68494

>  <a_nH>
19

>  <b_1rotN>
6

>  <b_1rotR>
0.181818

>  <b_ar>
16

>  <b_count>
52

>  <b_double>
4

>  <b_rotN>
6

>  <b_rotR>
0.181818

>  <b_single>
32

>  <b_triple>
0

>  <chi0v>
16.2917

>  <chi0v_C>
12.3699

>  <chi1v>
9.48027

>  <chi1v_C>
5.44936

>  <chiral>
0

>  <chiral_u>
0

>  <nmol>
1

>  <reactive>
0

>  <rings>
4

>  <Weight>
405.414

>  <a_heavy>
30

>  <a_nB>
0

>  <a_nBr>
0

>  <a_nC>
21

>  <a_nCl>
0

>  <a_nF>
0

>  <a_nI>
0

>  <a_nN>
5

>  <a_nO>
4

>  <a_nP>
0

>  <a_nS>
0

>  <b_heavy>
33

>  <chi0>
21.2503

>  <chi0_C>
13.9743

>  <chi1>
14.4692

>  <chi1_C>
7.13543

>  <FCharge>
0

>  <VAdjEq>
0.378242

>  <VAdjMa>
6.04439

>  <zagreb>
160

>  <balabanJ>
1.2931

>  <PEOE_PC+>
2.87365

>  <PEOE_PC->
-2.87365

>  <PEOE_RPC+>
0.10271

>  <PEOE_RPC->
0.124226

>  <PEOE_VSA+0>
103.268

>  <PEOE_VSA+1>
68.6235

>  <PEOE_VSA+2>
38.9014

>  <PEOE_VSA+3>
17.0775

>  <PEOE_VSA+4>
0

>  <PEOE_VSA+5>
34.3576

>  <PEOE_VSA+6>
0

>  <PEOE_VSA-0>
24.5098

>  <PEOE_VSA-1>
36.7647

>  <PEOE_VSA-2>
0

>  <PEOE_VSA-3>
0

>  <PEOE_VSA-4>
11.3652

>  <PEOE_VSA-5>
54.2677

>  <PEOE_VSA-6>
0.136891

>  <PEOE_VSA_FHYD>
0.742783

>  <PEOE_VSA_FNEG>
0.326364

>  <PEOE_VSA_FPNEG>
0.168956

>  <PEOE_VSA_FPOL>
0.257217

>  <PEOE_VSA_FPOS>
0.673636

>  <PEOE_VSA_FPPOS>
0.0882611

>  <PEOE_VSA_HYD>
289.145

>  <PEOE_VSA_NEG>
127.044

>  <PEOE_VSA_PNEG>
65.7697

>  <PEOE_VSA_POL>
100.127

>  <PEOE_VSA_POS>
262.228

>  <PEOE_VSA_PPOS>
34.3576

>  <PC+>
6.075

>  <PC->
-6.076

>  <Q_PC+>
6.075

>  <Q_PC->
-6.076

>  <Q_RPC+>
0.107984

>  <Q_RPC->
0.108624

>  <Q_VSA_FHYD>
0.43171

>  <Q_VSA_FNEG>
0.391915

>  <Q_VSA_FPNEG>
0.211623

>  <Q_VSA_FPOL>
0.56829

>  <Q_VSA_FPOS>
0.608085

>  <Q_VSA_FPPOS>
0.356667

>  <Q_VSA_HYD>
168.053

>  <Q_VSA_NEG>
152.561

>  <Q_VSA_PNEG>
82.3788

>  <Q_VSA_POL>
221.219

>  <Q_VSA_POS>
236.71

>  <Q_VSA_PPOS>
138.84

>  <RPC+>
0.107984

>  <RPC->
0.108624

>  <lip_acc>
9

>  <lip_don>
1

>  <lip_druglike>
1

>  <lip_violation>
0

>  <opr_brigid>
22

>  <opr_leadlike>
1

>  <opr_nring>
4

>  <opr_nrot>
6

>  <opr_violation>
1

>  <E>
87.9094

>  <E_ang>
7.35917

>  <E_ele>
21.1081

>  <E_nb>
70.4497

>  <E_oop>
0.0738831

>  <E_sol>
-23.5071

>  <E_stb>
1.35965

>  <E_str>
4.73883

>  <E_strain>
0.00538407

>  <E_tor>
3.92813

>  <E_vdw>
49.3416

>  <E_rele>
0

>  <E_rnb>
-2.84217e-014

>  <E_rsol>
-2.84217e-014

>  <E_rvdw>
0

>  <Kier1>
23.168

>  <Kier2>
10.2924

>  <Kier3>
5.01018

>  <KierA1>
15.622

>  <KierA2>
6.83739

>  <KierA3>
3.29327

>  <KierFlex>
3.56046

>  <logS>
-3.36644

>  <MNDO_dipole>
5.41321

>  <MNDO_E>
-121668

>  <MNDO_Eele>
-910585

>  <MNDO_HF>
-36.8424

>  <MNDO_HOMO>
-9.84624

>  <MNDO_IP>
9.84624

>  <MNDO_LUMO>
-1.36537

>  <apol>
58.3371

>  <bpol>
31.8629

>  <mr>
10.9414

>  <dipole>
1.14615

>  <dipoleX>
0.494403

>  <dipoleY>
-0.948392

>  <dipoleZ>
-0.412048

>  <pmi>
9446.96

>  <pmiX>
6776.16

>  <pmiY>
1743.77

>  <pmiZ>
927.031

>  <rgyr>
4.82722

>  <a_acc>
6

>  <a_acid>
0

>  <a_base>
0

>  <a_don>
1

>  <a_hyd>
16

>  <vsa_acc>
65.6328

>  <vsa_acid>
0

>  <vsa_base>
0

>  <vsa_don>
5.68258

>  <vsa_hyd>
234.464

>  <vsa_other>
67.6066

>  <vsa_pol>
71.3154

>  <PM3_dipole>
5.05385

>  <PM3_E>
-109894

>  <PM3_Eele>
-901262

>  <PM3_HF>
-55.3287

>  <PM3_HOMO>
-9.57654

>  <PM3_IP>
9.57654

>  <PM3_LUMO>
-1.4489

>  <SlogP>
1.3278

>  <SlogP_VSA0>
0

>  <SlogP_VSA1>
61.7125

>  <SlogP_VSA2>
40.6477

>  <SlogP_VSA3>
73.7583

>  <SlogP_VSA4>
80.7145

>  <SlogP_VSA5>
0

>  <SlogP_VSA6>
0

>  <SlogP_VSA7>
126.504

>  <SlogP_VSA8>
0

>  <SlogP_VSA9>
33.326

>  <SMR>
10.7149

>  <SMR_VSA0>
95.4489

>  <SMR_VSA1>
39.8197

>  <SMR_VSA2>
16.7855

>  <SMR_VSA3>
9.1279

>  <SMR_VSA4>
4.28827

>  <SMR_VSA5>
122.216

>  <SMR_VSA6>
95.6511

>  <SMR_VSA7>
33.326

>  <ASA>
661.985

>  <ASA+>
274.345

>  <ASA->
229.643

>  <ASA_H>
408.531

>  <ASA_P>
253.454

>  <CASA+>
1666.64

>  <CASA->
1395.31

>  <DASA>
44.7021

>  <DCASA>
271.336

>  <FASA+>
0.414427

>  <FASA->
0.3469

>  <FASA_H>
0.61713

>  <FASA_P>
0.38287

>  <FCASA+>
2.51765

>  <FCASA->
2.10776

>  <VSA>
406.389

>  <TPSA>
116.33

>  <density>
0.783366

>  <vdw_area>
389.272

>  <vdw_vol>
517.528

>  <vsurf_A>
3.58482

>  <vsurf_CP>
0.072578

>  <vsurf_CW1>
2.70198

>  <vsurf_CW2>
2.2571

>  <vsurf_CW3>
1.60009

>  <vsurf_CW4>
0.769076

>  <vsurf_CW5>
0.403988

>  <vsurf_CW6>
0.169214

>  <vsurf_CW7>
0.047834

>  <vsurf_CW8>
0.0207815

>  <vsurf_D1>
857.125

>  <vsurf_D2>
520.125

>  <vsurf_D3>
387.5

>  <vsurf_D4>
316.625

>  <vsurf_D5>
263.125

>  <vsurf_D6>
207.125

>  <vsurf_D7>
126

>  <vsurf_D8>
79.375

>  <vsurf_DD12>
1.11803

>  <vsurf_DD13>
0.5

>  <vsurf_DD23>
1.58114

>  <vsurf_DW12>
0.707107

>  <vsurf_DW13>
1.22474

>  <vsurf_DW23>
0.707107

>  <vsurf_EDmin1>
-2.86064

>  <vsurf_EDmin2>
-2.83773

>  <vsurf_EDmin3>
-2.81884

>  <vsurf_EWmin1>
-8.26819

>  <vsurf_EWmin2>
-8.2206

>  <vsurf_EWmin3>
-8.19131

>  <vsurf_G>
1.37037

>  <vsurf_HB1>
446.625

>  <vsurf_HB2>
527.625

>  <vsurf_HB3>
446.375

>  <vsurf_HB4>
187.75

>  <vsurf_HB5>
82.25

>  <vsurf_HB6>
30.625

>  <vsurf_HB7>
9.125

>  <vsurf_HB8>
3.375

>  <vsurf_HL1>
0.220645

>  <vsurf_HL2>
0.0975128

>  <vsurf_ID1>
1.27106

>  <vsurf_ID2>
1.14321

>  <vsurf_ID3>
1.2563

>  <vsurf_ID4>
1.66203

>  <vsurf_ID5>
2.07277

>  <vsurf_ID6>
2.23327

>  <vsurf_ID7>
1.1533

>  <vsurf_ID8>
0.548052

>  <vsurf_IW1>
0.319217

>  <vsurf_IW2>
1.0833

>  <vsurf_IW3>
1.63393

>  <vsurf_IW4>
2.06659

>  <vsurf_IW5>
2.40145

>  <vsurf_IW6>
2.96294

>  <vsurf_IW7>
4.05966

>  <vsurf_IW8>
5.23339

>  <vsurf_R>
1.43574

>  <vsurf_S>
599.951

>  <vsurf_V>
861.375

>  <vsurf_W1>
1540.63

>  <vsurf_W2>
978.25

>  <vsurf_W3>
535

>  <vsurf_W4>
197.875

>  <vsurf_W5>
85.5

>  <vsurf_W6>
30.875

>  <vsurf_W7>
9.125

>  <vsurf_W8>
3.375

>  <vsurf_Wp1>
1094

>  <vsurf_Wp2>
450.625

>  <vsurf_Wp3>
88.625

>  <vsurf_Wp4>
10.125

>  <vsurf_Wp5>
3.25

>  <vsurf_Wp6>
0.25

>  <vsurf_Wp7>
0

>  <vsurf_Wp8>
0

>  <dens>
1.09906

>  <glob>
0.0673484

>  <std_dim1>
4.60254

>  <std_dim2>
1.9022

>  <std_dim3>
1.19443

>  <vol>
368.875

>  <logP(o/w)>
0.12206

$$$$
D17.cdx
  MOE2008           3D

 53 57  0  0  0  0  0  0  0  0999 V2000
   -5.4680  -26.1910   -0.1870 C   0  0  0  0  0  0  0  0  0  0  0  0
   -6.2510  -25.4410   -0.1570 H   0  0  0  0  0  0  0  0  0  0  0  0
   -5.7840  -27.3480   -0.8040 N   0  0  0  0  0  0  0  0  0  0  0  0
   -4.8350  -28.3190   -0.8710 C   0  0  0  0  0  0  0  0  0  0  0  0
   -3.6040  -28.0360   -0.2840 C   0  0  0  0  0  0  0  0  0  0  0  0
   -3.3680  -26.8180    0.3340 C   0  0  0  0  0  0  0  0  0  0  0  0
   -4.3080  -25.8490    0.3950 N   0  0  0  0  0  0  0  0  0  0  0  0
   -2.4560  -28.7800   -0.1780 N   0  0  0  0  0  0  0  0  0  0  0  0
   -2.3730  -29.7220   -0.5500 H   0  0  0  0  0  0  0  0  0  0  0  0
   -1.4950  -28.0640    0.4800 C   0  0  0  0  0  0  0  0  0  0  0  0
   -0.5180  -28.4970    0.6540 H   0  0  0  0  0  0  0  0  0  0  0  0
   -2.0290  -26.8290    0.8190 C   0  0  0  0  0  0  0  0  0  0  0  0
   -1.3230  -25.7680    1.5170 C   0  0  0  0  0  0  0  0  0  0  0  0
    0.1650  -25.9130    1.7670 C   0  0  0  0  0  0  0  0  0  0  0  0
    1.0180  -25.3590    0.8160 N   0  0  0  0  0  0  0  0  0  0  0  0
    2.4680  -25.5010    0.9720 C   0  0  0  0  0  0  0  0  0  0  0  0
    2.7160  -25.9690    1.9290 H   0  0  0  0  0  0  0  0  0  0  0  0
    2.8070  -26.1730    0.1740 H   0  0  0  0  0  0  0  0  0  0  0  0
    3.1760  -24.1450    0.8520 C   0  0  0  0  0  0  0  0  0  0  0  0
    4.2580  -24.2770    0.8980 H   0  0  0  0  0  0  0  0  0  0  0  0
    2.8940  -23.5040    1.6960 H   0  0  0  0  0  0  0  0  0  0  0  0
    2.7500  -23.4400   -0.3680 N   0  0  0  0  0  0  0  0  0  0  0  0
    1.3000  -23.2740   -0.5000 C   0  0  0  0  0  0  0  0  0  0  0  0
    0.9790  -22.6060    0.3080 H   0  0  0  0  0  0  0  0  0  0  0  0
    1.0400  -22.7970   -1.4500 H   0  0  0  0  0  0  0  0  0  0  0  0
    0.5830  -24.6250   -0.3840 C   0  0  0  0  0  0  0  0  0  0  0  0
    0.8360  -25.2570   -1.2430 H   0  0  0  0  0  0  0  0  0  0  0  0
   -0.4970  -24.4680   -0.3960 H   0  0  0  0  0  0  0  0  0  0  0  0
    3.5880  -22.9180   -1.3490 C   0  0  0  0  0  0  0  0  0  0  0  0
    5.0350  -23.1990   -1.2650 C   0  0  0  0  0  0  0  0  0  0  0  0
   -1.8460  -24.7270    1.9010 O   0  0  0  0  0  0  0  0  0  0  0  0
    0.5140  -26.5270    2.7690 O   0  0  0  0  0  0  0  0  0  0  0  0
    3.2120  -22.2350   -2.2970 O   0  0  0  0  0  0  0  0  0  0  0  0
    5.5130  -24.4880   -1.5190 C   0  0  0  0  0  0  0  0  0  0  0  0
    4.8270  -25.2960   -1.7610 H   0  0  0  0  0  0  0  0  0  0  0  0
    6.8860  -24.7310   -1.4700 C   0  0  0  0  0  0  0  0  0  0  0  0
    7.2710  -25.7280   -1.6650 H   0  0  0  0  0  0  0  0  0  0  0  0
    7.7700  -23.6880   -1.1820 C   0  0  0  0  0  0  0  0  0  0  0  0
    8.8400  -23.8790   -1.1480 H   0  0  0  0  0  0  0  0  0  0  0  0
    7.2870  -22.3980   -0.9480 C   0  0  0  0  0  0  0  0  0  0  0  0
    7.9810  -21.5890   -0.7370 H   0  0  0  0  0  0  0  0  0  0  0  0
    5.9160  -22.1470   -0.9960 C   0  0  0  0  0  0  0  0  0  0  0  0
    5.5390  -21.1410   -0.8280 H   0  0  0  0  0  0  0  0  0  0  0  0
   -5.1320  -29.5920   -1.5440 C   0  0  0  0  0  0  0  0  0  0  0  0
   -6.3840  -29.8710   -2.0950 C   0  0  0  0  0  0  0  0  0  0  0  0
   -7.1910  -29.1470   -2.0420 H   0  0  0  0  0  0  0  0  0  0  0  0
   -6.5920  -31.0990   -2.7200 C   0  0  0  0  0  0  0  0  0  0  0  0
   -7.5610  -31.3330   -3.1540 H   0  0  0  0  0  0  0  0  0  0  0  0
   -5.5550  -32.0190   -2.7830 C   0  0  0  0  0  0  0  0  0  0  0  0
   -5.6900  -32.9820   -3.2640 H   0  0  0  0  0  0  0  0  0  0  0  0
   -4.3420  -31.6730   -2.2160 C   0  0  0  0  0  0  0  0  0  0  0  0
   -3.4990  -32.3560   -2.2380 H   0  0  0  0  0  0  0  0  0  0  0  0
   -4.1060  -30.4910   -1.6030 N   0  0  0  0  0  0  0  0  0  0  0  0
  1  2  1  0  0  0  0
  1  3  1  0  0  0  0
  1  7  2  0  0  0  0
  3  4  2  0  0  0  0
  4  5  1  0  0  0  0
  4 44  1  0  0  0  0
  5  6  2  0  0  0  0
  5  8  1  0  0  0  0
  6  7  1  0  0  0  0
  6 12  1  0  0  0  0
  8  9  1  0  0  0  0
  8 10  1  0  0  0  0
 10 11  1  0  0  0  0
 10 12  2  0  0  0  0
 12 13  1  0  0  0  0
 13 14  1  0  0  0  0
 13 31  2  0  0  0  0
 14 15  1  0  0  0  0
 14 32  2  0  0  0  0
 15 16  1  0  0  0  0
 15 26  1  0  0  0  0
 16 17  1  0  0  0  0
 16 18  1  0  0  0  0
 16 19  1  0  0  0  0
 19 20  1  0  0  0  0
 19 21  1  0  0  0  0
 19 22  1  0  0  0  0
 22 23  1  0  0  0  0
 22 29  1  0  0  0  0
 23 24  1  0  0  0  0
 23 25  1  0  0  0  0
 23 26  1  0  0  0  0
 26 27  1  0  0  0  0
 26 28  1  0  0  0  0
 29 30  1  0  0  0  0
 29 33  2  0  0  0  0
 30 34  1  0  0  0  0
 30 42  2  0  0  0  0
 34 35  1  0  0  0  0
 34 36  2  0  0  0  0
 36 37  1  0  0  0  0
 36 38  1  0  0  0  0
 38 39  1  0  0  0  0
 38 40  2  0  0  0  0
 40 41  1  0  0  0  0
 40 42  1  0  0  0  0
 42 43  1  0  0  0  0
 44 45  1  0  0  0  0
 44 53  2  0  0  0  0
 45 46  1  0  0  0  0
 45 47  2  0  0  0  0
 47 48  1  0  0  0  0
 47 49  1  0  0  0  0
 49 50  1  0  0  0  0
 49 51  2  0  0  0  0
 51 52  1  0  0  0  0
 51 53  1  0  0  0  0
M  END
>  <Activity>
9.4685

>  <AM1_dipole>
7.26555

>  <AM1_E>
-127933

>  <AM1_Eele>
-1.01242e+006

>  <AM1_HF>
63.5309

>  <AM1_HOMO>
-9.36362

>  <AM1_IP>
9.36362

>  <AM1_LUMO>
-1.15852

>  <diameter>
18

>  <petitjean>
0.5

>  <petitjeanSC>
1

>  <radius>
9

>  <VDistEq>
3.8894

>  <VDistMa>
9.76578

>  <weinerPath>
3523

>  <weinerPol>
56

>  <BCUT_PEOE_0>
-2.71185

>  <BCUT_PEOE_1>
-0.639516

>  <BCUT_PEOE_2>
0.664464

>  <BCUT_PEOE_3>
2.65035

>  <BCUT_SLOGP_0>
-2.86001

>  <BCUT_SLOGP_1>
-0.551334

>  <BCUT_SLOGP_2>
0.765842

>  <BCUT_SLOGP_3>
2.50309

>  <BCUT_SMR_0>
-2.43203

>  <BCUT_SMR_1>
-0.448689

>  <BCUT_SMR_2>
0.813964

>  <BCUT_SMR_3>
2.92016

>  <GCUT_PEOE_0>
-0.851781

>  <GCUT_PEOE_1>
-0.404634

>  <GCUT_PEOE_2>
0.0752057

>  <GCUT_PEOE_3>
2.68061

>  <GCUT_SLOGP_0>
-0.976501

>  <GCUT_SLOGP_1>
-0.334912

>  <GCUT_SLOGP_2>
0.156345

>  <GCUT_SLOGP_3>
2.66068

>  <GCUT_SMR_0>
-0.508907

>  <GCUT_SMR_1>
-0.21343

>  <GCUT_SMR_2>
0.218895

>  <GCUT_SMR_3>
2.95283

>  <a_aro>
21

>  <a_count>
53

>  <a_IC>
86.8375

>  <a_ICM>
1.63844

>  <a_nH>
20

>  <b_1rotN>
6

>  <b_1rotR>
0.162162

>  <b_ar>
22

>  <b_count>
57

>  <b_double>
3

>  <b_rotN>
6

>  <b_rotR>
0.162162

>  <b_single>
32

>  <b_triple>
0

>  <chi0v>
17.6401

>  <chi0v_C>
13.6793

>  <chi1v>
10.5466

>  <chi1v_C>
6.23803

>  <chiral>
0

>  <chiral_u>
0

>  <nmol>
1

>  <reactive>
0

>  <rings>
5

>  <Weight>
440.463

>  <a_heavy>
33

>  <a_nB>
0

>  <a_nBr>
0

>  <a_nC>
24

>  <a_nCl>
0

>  <a_nF>
0

>  <a_nI>
0

>  <a_nN>
6

>  <a_nO>
3

>  <a_nP>
0

>  <a_nS>
0

>  <b_heavy>
37

>  <chi0>
22.7859

>  <chi0_C>
15.8028

>  <chi1>
16.131

>  <chi1_C>
8.46633

>  <FCharge>
0

>  <VAdjEq>
0.358235

>  <VAdjMa>
6.20945

>  <zagreb>
178

>  <balabanJ>
1.13657

>  <PEOE_PC+>
2.97368

>  <PEOE_PC->
-2.97368

>  <PEOE_RPC+>
0.0992545

>  <PEOE_RPC->
0.120059

>  <PEOE_VSA+0>
88.4697

>  <PEOE_VSA+1>
92.3846

>  <PEOE_VSA+2>
38.9014

>  <PEOE_VSA+3>
8.61901

>  <PEOE_VSA+4>
0

>  <PEOE_VSA+5>
34.3576

>  <PEOE_VSA+6>
0

>  <PEOE_VSA-0>
49.0196

>  <PEOE_VSA-1>
49.0196

>  <PEOE_VSA-2>
0

>  <PEOE_VSA-3>
0

>  <PEOE_VSA-4>
11.3652

>  <PEOE_VSA-5>
46.3833

>  <PEOE_VSA-6>
0.136891

>  <PEOE_VSA_FHYD>
0.779669

>  <PEOE_VSA_FNEG>
0.37244

>  <PEOE_VSA_FPNEG>
0.138264

>  <PEOE_VSA_FPOL>
0.220331

>  <PEOE_VSA_FPOS>
0.62756

>  <PEOE_VSA_FPPOS>
0.0820662

>  <PEOE_VSA_HYD>
326.414

>  <PEOE_VSA_NEG>
155.925

>  <PEOE_VSA_PNEG>
57.8854

>  <PEOE_VSA_POL>
92.243

>  <PEOE_VSA_POS>
262.732

>  <PEOE_VSA_PPOS>
34.3576

>  <PC+>
6.575

>  <PC->
-6.576

>  <Q_PC+>
6.575

>  <Q_PC->
-6.576

>  <Q_RPC+>
0.0997719

>  <Q_RPC->
0.100365

>  <Q_VSA_FHYD>
0.494632

>  <Q_VSA_FNEG>
0.43339

>  <Q_VSA_FPNEG>
0.177937

>  <Q_VSA_FPOL>
0.505368

>  <Q_VSA_FPOS>
0.56661

>  <Q_VSA_FPPOS>
0.327432

>  <Q_VSA_HYD>
207.081

>  <Q_VSA_NEG>
181.442

>  <Q_VSA_PNEG>
74.4944

>  <Q_VSA_POL>
211.576

>  <Q_VSA_POS>
237.215

>  <Q_VSA_PPOS>
137.081

>  <RPC+>
0.0997719

>  <RPC->
0.100365

>  <lip_acc>
9

>  <lip_don>
1

>  <lip_druglike>
1

>  <lip_violation>
0

>  <opr_brigid>
28

>  <opr_leadlike>
0

>  <opr_nring>
5

>  <opr_nrot>
6

>  <opr_violation>
2

>  <E>
101.408

>  <E_ang>
7.92304

>  <E_ele>
20.9652

>  <E_nb>
83.0954

>  <E_oop>
0.0727209

>  <E_sol>
-22.2463

>  <E_stb>
1.40959

>  <E_str>
6.2101

>  <E_strain>
0.00729541

>  <E_tor>
2.697

>  <E_vdw>
62.1302

>  <E_rele>
0

>  <E_rnb>
-2.84217e-014

>  <E_rsol>
-2.84217e-014

>  <E_rvdw>
0

>  <Kier1>
24.6837

>  <Kier2>
11.3728

>  <Kier3>
5.40439

>  <KierA1>
16.3801

>  <KierA2>
7.44159

>  <KierA3>
3.50013

>  <KierFlex>
3.69376

>  <logS>
-4.00709

>  <MNDO_dipole>
7.31466

>  <MNDO_E>
-128170

>  <MNDO_Eele>
-1.00537e+006

>  <MNDO_HF>
55.3392

>  <MNDO_HOMO>
-9.31284

>  <MNDO_IP>
9.31284

>  <MNDO_LUMO>
-1.19886

>  <apol>
64.5819

>  <bpol>
33.3181

>  <mr>
12.2502

>  <dipole>
1.75733

>  <dipoleX>
0.461802

>  <dipoleY>
-1.56248

>  <dipoleZ>
-0.658478

>  <pmi>
12504.2

>  <pmiX>
8195.67

>  <pmiY>
3445.69

>  <pmiZ>
862.871

>  <rgyr>
5.32812

>  <a_acc>
6

>  <a_acid>
0

>  <a_base>
0

>  <a_don>
1

>  <a_hyd>
20

>  <vsa_acc>
57.7485

>  <vsa_acid>
0

>  <vsa_base>
0

>  <vsa_don>
5.68258

>  <vsa_hyd>
279.48

>  <vsa_other>
59.1481

>  <vsa_pol>
63.4311

>  <PM3_dipole>
7.26135

>  <PM3_E>
-115403

>  <PM3_Eele>
-999130

>  <PM3_HF>
12.7632

>  <PM3_HOMO>
-9.20247

>  <PM3_IP>
9.20247

>  <PM3_LUMO>
-1.34284

>  <SlogP>
2.1872

>  <SlogP_VSA0>
0

>  <SlogP_VSA1>
72.8104

>  <SlogP_VSA2>
40.6477

>  <SlogP_VSA3>
73.7583

>  <SlogP_VSA4>
54.0956

>  <SlogP_VSA5>
0

>  <SlogP_VSA6>
0

>  <SlogP_VSA7>
202.161

>  <SlogP_VSA8>
0

>  <SlogP_VSA9>
0

>  <SMR>
12.0376

>  <SMR_VSA0>
71.5866

>  <SMR_VSA1>
56.6052

>  <SMR_VSA2>
16.7855

>  <SMR_VSA3>
6.37115

>  <SMR_VSA4>
9.80177

>  <SMR_VSA5>
192.36

>  <SMR_VSA6>
89.9635

>  <SMR_VSA7>
0

>  <ASA>
713.264

>  <ASA+>
348.535

>  <ASA->
268.077

>  <ASA_H>
489.058

>  <ASA_P>
224.206

>  <CASA+>
2291.62

>  <CASA->
1762.88

>  <DASA>
80.4576

>  <DCASA>
528.741

>  <FASA+>
0.488648

>  <FASA->
0.375846

>  <FASA_H>
0.685662

>  <FASA_P>
0.314338

>  <FCASA+>
3.21286

>  <FCASA->
2.47156

>  <VSA>
440.014

>  <TPSA>
112.15

>  <density>
0.768175

>  <vdw_area>
418.657

>  <vdw_vol>
573.389

>  <vsurf_A>
3.24194

>  <vsurf_CP>
0.086005

>  <vsurf_CW1>
2.64206

>  <vsurf_CW2>
2.12039

>  <vsurf_CW3>
1.40431

>  <vsurf_CW4>
0.67583

>  <vsurf_CW5>
0.336156

>  <vsurf_CW6>
0.152118

>  <vsurf_CW7>
0.0488546

>  <vsurf_CW8>
0.0199647

>  <vsurf_D1>
1018.38

>  <vsurf_D2>
598.125

>  <vsurf_D3>
447.375

>  <vsurf_D4>
379.125

>  <vsurf_D5>
324.125

>  <vsurf_D6>
257.5

>  <vsurf_D7>
147.125

>  <vsurf_D8>
82.625

>  <vsurf_DD12>
0.5

>  <vsurf_DD13>
1.11803

>  <vsurf_DD23>
1.58114

>  <vsurf_DW12>
0.5

>  <vsurf_DW13>
0.5

>  <vsurf_DW23>
1

>  <vsurf_EDmin1>
-2.91756

>  <vsurf_EDmin2>
-2.79548

>  <vsurf_EDmin3>
-2.77324

>  <vsurf_EWmin1>
-8.77625

>  <vsurf_EWmin2>
-8.52799

>  <vsurf_EWmin3>
-8.03777

>  <vsurf_G>
1.39801

>  <vsurf_HB1>
371.5

>  <vsurf_HB2>
415.5

>  <vsurf_HB3>
417.5

>  <vsurf_HB4>
173.75

>  <vsurf_HB5>
71.875

>  <vsurf_HB6>
28.75

>  <vsurf_HB7>
10.125

>  <vsurf_HB8>
3.5

>  <vsurf_HL1>
0.167365

>  <vsurf_HL2>
0.0771513

>  <vsurf_ID1>
1.04219

>  <vsurf_ID2>
0.992222

>  <vsurf_ID3>
1.07262

>  <vsurf_ID4>
1.21787

>  <vsurf_ID5>
1.44235

>  <vsurf_ID6>
1.49626

>  <vsurf_ID7>
0.863757

>  <vsurf_ID8>
0.783062

>  <vsurf_IW1>
0.195361

>  <vsurf_IW2>
0.893956

>  <vsurf_IW3>
1.41444

>  <vsurf_IW4>
1.81591

>  <vsurf_IW5>
2.24625

>  <vsurf_IW6>
2.6443

>  <vsurf_IW7>
3.55715

>  <vsurf_IW8>
4.13857

>  <vsurf_R>
1.44778

>  <vsurf_S>
647.717

>  <vsurf_V>
937.75

>  <vsurf_W1>
1597.75

>  <vsurf_W2>
954.375

>  <vsurf_W3>
509

>  <vsurf_W4>
184

>  <vsurf_W5>
74.875

>  <vsurf_W6>
29.25

>  <vsurf_W7>
10.125

>  <vsurf_W8>
3.5

>  <vsurf_Wp1>
1226.25

>  <vsurf_Wp2>
538.875

>  <vsurf_Wp3>
91.5

>  <vsurf_Wp4>
10.25

>  <vsurf_Wp5>
3

>  <vsurf_Wp6>
0.5

>  <vsurf_Wp7>
0

>  <vsurf_Wp8>
0

>  <dens>
1.08322

>  <glob>
0.0506927

>  <std_dim1>
5.25005

>  <std_dim2>
1.79094

>  <std_dim3>
1.18205

>  <vol>
406.625

>  <logP(o/w)>
1.15359

$$$$
D18.cdx
  MOE2008           3D

 53 57  0  0  0  0  0  0  0  0999 V2000
   -8.4340   28.7060   -0.7460 C   0  0  0  0  0  0  0  0  0  0  0  0
   -9.2360   29.3820   -1.0250 H   0  0  0  0  0  0  0  0  0  0  0  0
   -8.5760   27.4290   -1.1450 N   0  0  0  0  0  0  0  0  0  0  0  0
   -7.6090   26.5390   -0.8120 C   0  0  0  0  0  0  0  0  0  0  0  0
   -6.5110   27.0210   -0.1010 C   0  0  0  0  0  0  0  0  0  0  0  0
   -6.4490   28.3640    0.2640 C   0  0  0  0  0  0  0  0  0  0  0  0
   -7.4250   29.2450   -0.0510 N   0  0  0  0  0  0  0  0  0  0  0  0
   -5.3500   26.4350    0.3410 N   0  0  0  0  0  0  0  0  0  0  0  0
   -5.0980   25.4640    0.2050 H   0  0  0  0  0  0  0  0  0  0  0  0
   -4.5750   27.3620    0.9920 C   0  0  0  0  0  0  0  0  0  0  0  0
   -3.6220   27.0680    1.4160 H   0  0  0  0  0  0  0  0  0  0  0  0
   -5.2290   28.5830    0.9640 C   0  0  0  0  0  0  0  0  0  0  0  0
   -4.7330   29.8310    1.5290 C   0  0  0  0  0  0  0  0  0  0  0  0
   -3.3240   29.8920    2.0880 C   0  0  0  0  0  0  0  0  0  0  0  0
   -2.3190   30.2960    1.2090 N   0  0  0  0  0  0  0  0  0  0  0  0
   -0.9340   30.3280    1.6770 C   0  0  0  0  0  0  0  0  0  0  0  0
   -0.7540   31.3400    2.0600 H   0  0  0  0  0  0  0  0  0  0  0  0
   -0.8000   29.6320    2.5110 H   0  0  0  0  0  0  0  0  0  0  0  0
    0.0580   30.0050    0.5550 C   0  0  0  0  0  0  0  0  0  0  0  0
   -0.1010   28.9760    0.2140 H   0  0  0  0  0  0  0  0  0  0  0  0
    1.0830   30.0880    0.9290 H   0  0  0  0  0  0  0  0  0  0  0  0
   -0.1160   30.8750   -0.6180 N   0  0  0  0  0  0  0  0  0  0  0  0
   -1.4180   31.5280   -0.7700 C   0  0  0  0  0  0  0  0  0  0  0  0
   -1.3470   32.4910   -0.2500 H   0  0  0  0  0  0  0  0  0  0  0  0
   -1.6110   31.7410   -1.8270 H   0  0  0  0  0  0  0  0  0  0  0  0
   -2.5640   30.7000   -0.1820 C   0  0  0  0  0  0  0  0  0  0  0  0
   -2.6900   29.7750   -0.7580 H   0  0  0  0  0  0  0  0  0  0  0  0
   -3.5000   31.2630   -0.2480 H   0  0  0  0  0  0  0  0  0  0  0  0
    0.8750   31.1430   -1.5620 C   0  0  0  0  0  0  0  0  0  0  0  0
    2.1470   30.3890   -1.4900 C   0  0  0  0  0  0  0  0  0  0  0  0
   -5.3800   30.8740    1.5700 O   0  0  0  0  0  0  0  0  0  0  0  0
   -3.1580   29.5750    3.2610 O   0  0  0  0  0  0  0  0  0  0  0  0
    0.7710   31.9790   -2.4540 O   0  0  0  0  0  0  0  0  0  0  0  0
    2.1600   28.9990   -1.6480 C   0  0  0  0  0  0  0  0  0  0  0  0
    1.2380   28.4510   -1.8200 H   0  0  0  0  0  0  0  0  0  0  0  0
    3.3740   28.3140   -1.5990 C   0  0  0  0  0  0  0  0  0  0  0  0
    3.3960   27.2330   -1.7180 H   0  0  0  0  0  0  0  0  0  0  0  0
    4.5660   29.0160   -1.4080 C   0  0  0  0  0  0  0  0  0  0  0  0
    5.5110   28.4800   -1.3750 H   0  0  0  0  0  0  0  0  0  0  0  0
    4.5510   30.4060   -1.2750 C   0  0  0  0  0  0  0  0  0  0  0  0
    5.4830   30.9490   -1.1410 H   0  0  0  0  0  0  0  0  0  0  0  0
    3.3410   31.0980   -1.3230 C   0  0  0  0  0  0  0  0  0  0  0  0
    3.3300   32.1810   -1.2310 H   0  0  0  0  0  0  0  0  0  0  0  0
   -7.7760   25.1610   -1.2600 C   0  0  0  0  0  0  0  0  0  0  0  0
   -8.1100   24.8640   -2.5890 C   0  0  0  0  0  0  0  0  0  0  0  0
   -8.2480   25.6690   -3.3090 H   0  0  0  0  0  0  0  0  0  0  0  0
   -8.2670   23.5430   -3.0030 C   0  0  0  0  0  0  0  0  0  0  0  0
   -8.5230   23.3060   -4.0300 H   0  0  0  0  0  0  0  0  0  0  0  0
   -8.0910   22.5400   -2.0670 C   0  0  0  0  0  0  0  0  0  0  0  0
   -8.2010   21.4940   -2.3380 H   0  0  0  0  0  0  0  0  0  0  0  0
   -7.7810   22.7690   -0.7730 N   0  0  0  0  0  0  0  0  0  0  0  0
   -7.6430   24.0680   -0.4040 C   0  0  0  0  0  0  0  0  0  0  0  0
   -7.4310   24.2010    0.6540 H   0  0  0  0  0  0  0  0  0  0  0  0
  1  2  1  0  0  0  0
  1  3  1  0  0  0  0
  1  7  2  0  0  0  0
  3  4  2  0  0  0  0
  4  5  1  0  0  0  0
  4 44  1  0  0  0  0
  5  6  2  0  0  0  0
  5  8  1  0  0  0  0
  6  7  1  0  0  0  0
  6 12  1  0  0  0  0
  8  9  1  0  0  0  0
  8 10  1  0  0  0  0
 10 11  1  0  0  0  0
 10 12  2  0  0  0  0
 12 13  1  0  0  0  0
 13 14  1  0  0  0  0
 13 31  2  0  0  0  0
 14 15  1  0  0  0  0
 14 32  2  0  0  0  0
 15 16  1  0  0  0  0
 15 26  1  0  0  0  0
 16 17  1  0  0  0  0
 16 18  1  0  0  0  0
 16 19  1  0  0  0  0
 19 20  1  0  0  0  0
 19 21  1  0  0  0  0
 19 22  1  0  0  0  0
 22 23  1  0  0  0  0
 22 29  1  0  0  0  0
 23 24  1  0  0  0  0
 23 25  1  0  0  0  0
 23 26  1  0  0  0  0
 26 27  1  0  0  0  0
 26 28  1  0  0  0  0
 29 30  1  0  0  0  0
 29 33  2  0  0  0  0
 30 34  1  0  0  0  0
 30 42  2  0  0  0  0
 34 35  1  0  0  0  0
 34 36  2  0  0  0  0
 36 37  1  0  0  0  0
 36 38  1  0  0  0  0
 38 39  1  0  0  0  0
 38 40  2  0  0  0  0
 40 41  1  0  0  0  0
 40 42  1  0  0  0  0
 42 43  1  0  0  0  0
 44 45  1  0  0  0  0
 44 52  2  0  0  0  0
 45 46  1  0  0  0  0
 45 47  2  0  0  0  0
 47 48  1  0  0  0  0
 47 49  1  0  0  0  0
 49 50  1  0  0  0  0
 49 51  2  0  0  0  0
 51 52  1  0  0  0  0
 52 53  1  0  0  0  0
M  END
>  <Activity>
8.886

>  <AM1_dipole>
6.31913

>  <AM1_E>
-127932

>  <AM1_Eele>
-1.01881e+006

>  <AM1_HF>
64.7637

>  <AM1_HOMO>
-9.57219

>  <AM1_IP>
9.57219

>  <AM1_LUMO>
-1.1259

>  <diameter>
18

>  <petitjean>
0.5

>  <petitjeanSC>
1

>  <radius>
9

>  <VDistEq>
3.8894

>  <VDistMa>
9.76578

>  <weinerPath>
3523

>  <weinerPol>
56

>  <BCUT_PEOE_0>
-2.71185

>  <BCUT_PEOE_1>
-0.639507

>  <BCUT_PEOE_2>
0.681511

>  <BCUT_PEOE_3>
2.65035

>  <BCUT_SLOGP_0>
-2.86001

>  <BCUT_SLOGP_1>
-0.551521

>  <BCUT_SLOGP_2>
0.782273

>  <BCUT_SLOGP_3>
2.50312

>  <BCUT_SMR_0>
-2.43203

>  <BCUT_SMR_1>
-0.462811

>  <BCUT_SMR_2>
0.831999

>  <BCUT_SMR_3>
2.92016

>  <GCUT_PEOE_0>
-0.851938

>  <GCUT_PEOE_1>
-0.40591

>  <GCUT_PEOE_2>
0.079332

>  <GCUT_PEOE_3>
2.68345

>  <GCUT_SLOGP_0>
-0.976499

>  <GCUT_SLOGP_1>
-0.334897

>  <GCUT_SLOGP_2>
0.159812

>  <GCUT_SLOGP_3>
2.66762

>  <GCUT_SMR_0>
-0.508907

>  <GCUT_SMR_1>
-0.213633

>  <GCUT_SMR_2>
0.219676

>  <GCUT_SMR_3>
2.95671

>  <a_aro>
21

>  <a_count>
53

>  <a_IC>
86.8375

>  <a_ICM>
1.63844

>  <a_nH>
20

>  <b_1rotN>
6

>  <b_1rotR>
0.162162

>  <b_ar>
22

>  <b_count>
57

>  <b_double>
3

>  <b_rotN>
6

>  <b_rotR>
0.162162

>  <b_single>
32

>  <b_triple>
0

>  <chi0v>
17.6401

>  <chi0v_C>
13.6793

>  <chi1v>
10.5366

>  <chi1v_C>
6.19338

>  <chiral>
0

>  <chiral_u>
0

>  <nmol>
1

>  <reactive>
0

>  <rings>
5

>  <Weight>
440.463

>  <a_heavy>
33

>  <a_nB>
0

>  <a_nBr>
0

>  <a_nC>
24

>  <a_nCl>
0

>  <a_nF>
0

>  <a_nI>
0

>  <a_nN>
6

>  <a_nO>
3

>  <a_nP>
0

>  <a_nS>
0

>  <b_heavy>
37

>  <chi0>
22.7859

>  <chi0_C>
15.8028

>  <chi1>
16.131

>  <chi1_C>
8.37457

>  <FCharge>
0

>  <VAdjEq>
0.358235

>  <VAdjMa>
6.20945

>  <zagreb>
178

>  <balabanJ>
1.13657

>  <PEOE_PC+>
2.94111

>  <PEOE_PC->
-2.94111

>  <PEOE_RPC+>
0.100354

>  <PEOE_RPC->
0.121402

>  <PEOE_VSA+0>
107.424

>  <PEOE_VSA+1>
92.3846

>  <PEOE_VSA+2>
32.2019

>  <PEOE_VSA+3>
8.61901

>  <PEOE_VSA+4>
0

>  <PEOE_VSA+5>
34.3576

>  <PEOE_VSA+6>
0

>  <PEOE_VSA-0>
49.0196

>  <PEOE_VSA-1>
36.7647

>  <PEOE_VSA-2>
0

>  <PEOE_VSA-3>
0

>  <PEOE_VSA-4>
11.3652

>  <PEOE_VSA-5>
46.3833

>  <PEOE_VSA-6>
0.136891

>  <PEOE_VSA_FHYD>
0.779669

>  <PEOE_VSA_FNEG>
0.343168

>  <PEOE_VSA_FPNEG>
0.138264

>  <PEOE_VSA_FPOL>
0.220331

>  <PEOE_VSA_FPOS>
0.656832

>  <PEOE_VSA_FPPOS>
0.0820662

>  <PEOE_VSA_HYD>
326.414

>  <PEOE_VSA_NEG>
143.67

>  <PEOE_VSA_PNEG>
57.8854

>  <PEOE_VSA_POL>
92.243

>  <PEOE_VSA_POS>
274.987

>  <PEOE_VSA_PPOS>
34.3576

>  <PC+>
6.425

>  <PC->
-6.426

>  <Q_PC+>
6.425

>  <Q_PC->
-6.426

>  <Q_RPC+>
0.102101

>  <Q_RPC->
0.102708

>  <Q_VSA_FHYD>
0.510634

>  <Q_VSA_FNEG>
0.404118

>  <Q_VSA_FPNEG>
0.177937

>  <Q_VSA_FPOL>
0.489366

>  <Q_VSA_FPOS>
0.595882

>  <Q_VSA_FPPOS>
0.311429

>  <Q_VSA_HYD>
213.781

>  <Q_VSA_NEG>
169.187

>  <Q_VSA_PNEG>
74.4944

>  <Q_VSA_POL>
204.876

>  <Q_VSA_POS>
249.47

>  <Q_VSA_PPOS>
130.382

>  <RPC+>
0.102101

>  <RPC->
0.102708

>  <lip_acc>
9

>  <lip_don>
1

>  <lip_druglike>
1

>  <lip_violation>
0

>  <opr_brigid>
28

>  <opr_leadlike>
0

>  <opr_nring>
5

>  <opr_nrot>
6

>  <opr_violation>
2

>  <E>
103.985

>  <E_ang>
7.14281

>  <E_ele>
21.0202

>  <E_nb>
80.3601

>  <E_oop>
0.0747208

>  <E_sol>
-22.4964

>  <E_stb>
1.40879

>  <E_str>
6.00334

>  <E_strain>
0.00470176

>  <E_tor>
8.9955

>  <E_vdw>
59.3399

>  <E_rele>
0

>  <E_rnb>
0

>  <E_rsol>
0

>  <E_rvdw>
0

>  <Kier1>
24.6837

>  <Kier2>
11.3728

>  <Kier3>
5.40439

>  <KierA1>
16.3801

>  <KierA2>
7.44159

>  <KierA3>
3.50013

>  <KierFlex>
3.69376

>  <logS>
-4.03829

>  <MNDO_dipole>
7.68564

>  <MNDO_E>
-128170

>  <MNDO_Eele>
-1.00996e+006

>  <MNDO_HF>
62.2852

>  <MNDO_HOMO>
-9.74922

>  <MNDO_IP>
9.74922

>  <MNDO_LUMO>
-0.98101

>  <apol>
64.5819

>  <bpol>
33.3181

>  <mr>
12.2508

>  <dipole>
1.69209

>  <dipoleX>
0.968301

>  <dipoleY>
-1.29668

>  <dipoleZ>
-0.49414

>  <pmi>
11825.5

>  <pmiX>
7819.17

>  <pmiY>
3032.23

>  <pmiZ>
974.077

>  <rgyr>
5.18149

>  <a_acc>
6

>  <a_acid>
0

>  <a_base>
0

>  <a_don>
1

>  <a_hyd>
20

>  <vsa_acc>
57.7485

>  <vsa_acid>
0

>  <vsa_base>
0

>  <vsa_don>
5.68258

>  <vsa_hyd>
279.48

>  <vsa_other>
59.1481

>  <vsa_pol>
63.4311

>  <PM3_dipole>
6.48633

>  <PM3_E>
-115396

>  <PM3_Eele>
-994610

>  <PM3_HF>
19.0419

>  <PM3_HOMO>
-9.47991

>  <PM3_IP>
9.47991

>  <PM3_LUMO>
-1.20296

>  <SlogP>
2.1872

>  <SlogP_VSA0>
0

>  <SlogP_VSA1>
72.8104

>  <SlogP_VSA2>
40.6477

>  <SlogP_VSA3>
73.7583

>  <SlogP_VSA4>
54.0956

>  <SlogP_VSA5>
0

>  <SlogP_VSA6>
0

>  <SlogP_VSA7>
202.161

>  <SlogP_VSA8>
0

>  <SlogP_VSA9>
0

>  <SMR>
12.0376

>  <SMR_VSA0>
71.5866

>  <SMR_VSA1>
56.6052

>  <SMR_VSA2>
16.7855

>  <SMR_VSA3>
6.37115

>  <SMR_VSA4>
10.2306

>  <SMR_VSA5>
191.931

>  <SMR_VSA6>
89.9635

>  <SMR_VSA7>
0

>  <ASA>
710.346

>  <ASA+>
348.979

>  <ASA->
257.613

>  <ASA_H>
479.887

>  <ASA_P>
230.46

>  <CASA+>
2242.19

>  <CASA->
1655.42

>  <DASA>
91.3659

>  <DCASA>
586.768

>  <FASA+>
0.49128

>  <FASA->
0.362658

>  <FASA_H>
0.675567

>  <FASA_P>
0.324433

>  <FCASA+>
3.15647

>  <FCASA->
2.33044

>  <VSA>
444.125

>  <TPSA>
112.15

>  <density>
0.768175

>  <vdw_area>
418.657

>  <vdw_vol>
573.389

>  <vsurf_A>
3.84406

>  <vsurf_CP>
0.0800205

>  <vsurf_CW1>
2.68872

>  <vsurf_CW2>
2.22284

>  <vsurf_CW3>
1.51572

>  <vsurf_CW4>
0.725004

>  <vsurf_CW5>
0.376078

>  <vsurf_CW6>
0.152138

>  <vsurf_CW7>
0.0366691

>  <vsurf_CW8>
0.018084

>  <vsurf_D1>
967.75

>  <vsurf_D2>
578

>  <vsurf_D3>
433.625

>  <vsurf_D4>
366.75

>  <vsurf_D5>
311.875

>  <vsurf_D6>
251.375

>  <vsurf_D7>
149.75

>  <vsurf_D8>
88.875

>  <vsurf_DD12>
1.11803

>  <vsurf_DD13>
0.5

>  <vsurf_DD23>
0.707107

>  <vsurf_DW12>
0.707107

>  <vsurf_DW13>
0.866025

>  <vsurf_DW23>
1.5

>  <vsurf_EDmin1>
-2.85135

>  <vsurf_EDmin2>
-2.84697

>  <vsurf_EDmin3>
-2.83865

>  <vsurf_EWmin1>
-8.75243

>  <vsurf_EWmin2>
-8.08838

>  <vsurf_EWmin3>
-8.02323

>  <vsurf_G>
1.39715

>  <vsurf_HB1>
443.625

>  <vsurf_HB2>
512.875

>  <vsurf_HB3>
456.875

>  <vsurf_HB4>
192.625

>  <vsurf_HB5>
77.375

>  <vsurf_HB6>
26.125

>  <vsurf_HB7>
7.5

>  <vsurf_HB8>
3.25

>  <vsurf_HL1>
0.193139

>  <vsurf_HL2>
0.0773688

>  <vsurf_ID1>
1.29711

>  <vsurf_ID2>
1.20134

>  <vsurf_ID3>
1.33819

>  <vsurf_ID4>
1.58226

>  <vsurf_ID5>
1.84383

>  <vsurf_ID6>
1.85238

>  <vsurf_ID7>
1.05113

>  <vsurf_ID8>
0.516776

>  <vsurf_IW1>
0.436838

>  <vsurf_IW2>
1.06192

>  <vsurf_IW3>
1.68424

>  <vsurf_IW4>
2.23923

>  <vsurf_IW5>
2.64597

>  <vsurf_IW6>
3.56452

>  <vsurf_IW7>
5.35319

>  <vsurf_IW8>
5.94206

>  <vsurf_R>
1.45252

>  <vsurf_S>
650.768

>  <vsurf_V>
945.25

>  <vsurf_W1>
1673.75

>  <vsurf_W2>
1044.63

>  <vsurf_W3>
558.625

>  <vsurf_W4>
208.375

>  <vsurf_W5>
83.75

>  <vsurf_W6>
28.375

>  <vsurf_W7>
7.625

>  <vsurf_W8>
3.25

>  <vsurf_Wp1>
1230.13

>  <vsurf_Wp2>
531.75

>  <vsurf_Wp3>
101.75

>  <vsurf_Wp4>
15.75

>  <vsurf_Wp5>
6.375

>  <vsurf_Wp6>
2.25

>  <vsurf_Wp7>
0.125

>  <vsurf_Wp8>
0

>  <dens>
1.07824

>  <glob>
0.0708687

>  <std_dim1>
4.81994

>  <std_dim2>
2.12273

>  <std_dim3>
1.28312

>  <vol>
408.5

>  <logP(o/w)>
0.99606

$$$$
D18.cdx
  MOE2008           3D

 52 56  0  0  0  0  0  0  0  0999 V2000
   -7.4070   20.3360   -1.2380 C   0  0  0  0  0  0  0  0  0  0  0  0
   -8.2140   21.0180   -1.4880 H   0  0  0  0  0  0  0  0  0  0  0  0
   -7.4860   19.1060   -1.7860 N   0  0  0  0  0  0  0  0  0  0  0  0
   -6.4990   18.2160   -1.5060 C   0  0  0  0  0  0  0  0  0  0  0  0
   -5.4790   18.6500   -0.6650 C   0  0  0  0  0  0  0  0  0  0  0  0
   -5.4820   19.9340   -0.1390 C   0  0  0  0  0  0  0  0  0  0  0  0
   -6.4600   20.8220   -0.4220 N   0  0  0  0  0  0  0  0  0  0  0  0
   -4.3570   18.0160   -0.1940 N   0  0  0  0  0  0  0  0  0  0  0  0
   -4.1200   17.0580   -0.4320 H   0  0  0  0  0  0  0  0  0  0  0  0
   -3.6480   18.8630    0.6130 C   0  0  0  0  0  0  0  0  0  0  0  0
   -2.7300   18.5260    1.0780 H   0  0  0  0  0  0  0  0  0  0  0  0
   -4.3240   20.0720    0.6780 C   0  0  0  0  0  0  0  0  0  0  0  0
   -3.8970   21.2350    1.4380 C   0  0  0  0  0  0  0  0  0  0  0  0
   -2.5450   21.2020    2.1260 C   0  0  0  0  0  0  0  0  0  0  0  0
   -1.4730   21.7360    1.4160 N   0  0  0  0  0  0  0  0  0  0  0  0
   -0.1250   21.6230    1.9710 C   0  0  0  0  0  0  0  0  0  0  0  0
    0.0550   22.5370    2.5510 H   0  0  0  0  0  0  0  0  0  0  0  0
   -0.0700   20.7770    2.6630 H   0  0  0  0  0  0  0  0  0  0  0  0
    0.9330   21.4770    0.8730 C   0  0  0  0  0  0  0  0  0  0  0  0
    0.7640   20.5420    0.3260 H   0  0  0  0  0  0  0  0  0  0  0  0
    1.9310   21.4380    1.3190 H   0  0  0  0  0  0  0  0  0  0  0  0
    0.8720   22.5660   -0.1150 N   0  0  0  0  0  0  0  0  0  0  0  0
   -0.3970   23.2910   -0.2210 C   0  0  0  0  0  0  0  0  0  0  0  0
   -0.3340   24.1320    0.4800 H   0  0  0  0  0  0  0  0  0  0  0  0
   -0.5080   23.7110   -1.2270 H   0  0  0  0  0  0  0  0  0  0  0  0
   -1.6060   22.4160    0.1200 C   0  0  0  0  0  0  0  0  0  0  0  0
   -1.7220   21.6290   -0.6350 H   0  0  0  0  0  0  0  0  0  0  0  0
   -2.5170   23.0220    0.1120 H   0  0  0  0  0  0  0  0  0  0  0  0
    1.9350   22.9690   -0.9210 C   0  0  0  0  0  0  0  0  0  0  0  0
    3.1730   22.1560   -0.9240 C   0  0  0  0  0  0  0  0  0  0  0  0
   -4.5540   22.2650    1.5540 O   0  0  0  0  0  0  0  0  0  0  0  0
   -2.4810   20.6680    3.2270 O   0  0  0  0  0  0  0  0  0  0  0  0
    1.9220   23.9700   -1.6310 O   0  0  0  0  0  0  0  0  0  0  0  0
    3.1480   20.8230   -1.3480 C   0  0  0  0  0  0  0  0  0  0  0  0
    2.2200   20.3610   -1.6740 H   0  0  0  0  0  0  0  0  0  0  0  0
    4.3320   20.0860   -1.3660 C   0  0  0  0  0  0  0  0  0  0  0  0
    4.3250   19.0480   -1.6910 H   0  0  0  0  0  0  0  0  0  0  0  0
    5.5330   20.6830   -0.9770 C   0  0  0  0  0  0  0  0  0  0  0  0
    6.4550   20.1070   -0.9960 H   0  0  0  0  0  0  0  0  0  0  0  0
    5.5570   22.0210   -0.5780 C   0  0  0  0  0  0  0  0  0  0  0  0
    6.4980   22.4850   -0.2900 H   0  0  0  0  0  0  0  0  0  0  0  0
    4.3770   22.7640   -0.5570 C   0  0  0  0  0  0  0  0  0  0  0  0
    4.3980   23.8090   -0.2580 H   0  0  0  0  0  0  0  0  0  0  0  0
   -6.5490   16.8710   -2.0830 C   0  0  0  0  0  0  0  0  0  0  0  0
   -7.5930   16.4400   -2.8940 C   0  0  0  0  0  0  0  0  0  0  0  0
   -8.4300   17.0840   -3.1420 H   0  0  0  0  0  0  0  0  0  0  0  0
   -7.6500   15.1960   -3.4310 N   0  0  0  0  0  0  0  0  0  0  0  0
   -6.6170   14.3830   -3.1300 C   0  0  0  0  0  0  0  0  0  0  0  0
   -6.6550   13.3870   -3.5560 H   0  0  0  0  0  0  0  0  0  0  0  0
   -5.5710   14.7930   -2.3270 C   0  0  0  0  0  0  0  0  0  0  0  0
   -4.7450   14.1330   -2.0890 H   0  0  0  0  0  0  0  0  0  0  0  0
   -5.5110   16.0330   -1.7910 N   0  0  0  0  0  0  0  0  0  0  0  0
  1  2  1  0  0  0  0
  1  3  1  0  0  0  0
  1  7  2  0  0  0  0
  3  4  2  0  0  0  0
  4  5  1  0  0  0  0
  4 44  1  0  0  0  0
  5  6  2  0  0  0  0
  5  8  1  0  0  0  0
  6  7  1  0  0  0  0
  6 12  1  0  0  0  0
  8  9  1  0  0  0  0
  8 10  1  0  0  0  0
 10 11  1  0  0  0  0
 10 12  2  0  0  0  0
 12 13  1  0  0  0  0
 13 14  1  0  0  0  0
 13 31  2  0  0  0  0
 14 15  1  0  0  0  0
 14 32  2  0  0  0  0
 15 16  1  0  0  0  0
 15 26  1  0  0  0  0
 16 17  1  0  0  0  0
 16 18  1  0  0  0  0
 16 19  1  0  0  0  0
 19 20  1  0  0  0  0
 19 21  1  0  0  0  0
 19 22  1  0  0  0  0
 22 23  1  0  0  0  0
 22 29  1  0  0  0  0
 23 24  1  0  0  0  0
 23 25  1  0  0  0  0
 23 26  1  0  0  0  0
 26 27  1  0  0  0  0
 26 28  1  0  0  0  0
 29 30  1  0  0  0  0
 29 33  2  0  0  0  0
 30 34  1  0  0  0  0
 30 42  2  0  0  0  0
 34 35  1  0  0  0  0
 34 36  2  0  0  0  0
 36 37  1  0  0  0  0
 36 38  1  0  0  0  0
 38 39  1  0  0  0  0
 38 40  2  0  0  0  0
 40 41  1  0  0  0  0
 40 42  1  0  0  0  0
 42 43  1  0  0  0  0
 44 45  1  0  0  0  0
 44 52  2  0  0  0  0
 45 46  1  0  0  0  0
 45 47  2  0  0  0  0
 47 48  1  0  0  0  0
 48 49  1  0  0  0  0
 48 50  2  0  0  0  0
 50 51  1  0  0  0  0
 50 52  1  0  0  0  0
M  END
>  <Activity>
9.602

>  <AM1_dipole>
7.41942

>  <AM1_E>
-129428

>  <AM1_Eele>
-1.02094e+006

>  <AM1_HF>
76.7203

>  <AM1_HOMO>
-9.48422

>  <AM1_IP>
9.48422

>  <AM1_LUMO>
-1.42977

>  <diameter>
18

>  <petitjean>
0.5

>  <petitjeanSC>
1

>  <radius>
9

>  <VDistEq>
3.8894

>  <VDistMa>
9.76578

>  <weinerPath>
3523

>  <weinerPol>
56

>  <BCUT_PEOE_0>
-2.71185

>  <BCUT_PEOE_1>
-0.647623

>  <BCUT_PEOE_2>
0.698844

>  <BCUT_PEOE_3>
2.65035

>  <BCUT_SLOGP_0>
-2.86001

>  <BCUT_SLOGP_1>
-0.557957

>  <BCUT_SLOGP_2>
0.805915

>  <BCUT_SLOGP_3>
2.50308

>  <BCUT_SMR_0>
-2.43203

>  <BCUT_SMR_1>
-0.471959

>  <BCUT_SMR_2>
0.854311

>  <BCUT_SMR_3>
2.92016

>  <GCUT_PEOE_0>
-0.851732

>  <GCUT_PEOE_1>
-0.403751

>  <GCUT_PEOE_2>
0.080099

>  <GCUT_PEOE_3>
2.6742

>  <GCUT_SLOGP_0>
-0.976501

>  <GCUT_SLOGP_1>
-0.350382

>  <GCUT_SLOGP_2>
0.164454

>  <GCUT_SLOGP_3>
2.64563

>  <GCUT_SMR_0>
-0.508907

>  <GCUT_SMR_1>
-0.216057

>  <GCUT_SMR_2>
0.231702

>  <GCUT_SMR_3>
2.94456

>  <a_aro>
21

>  <a_count>
52

>  <a_IC>
87.2639

>  <a_ICM>
1.67815

>  <a_nH>
19

>  <b_1rotN>
6

>  <b_1rotR>
0.162162

>  <b_ar>
22

>  <b_count>
56

>  <b_double>
3

>  <b_rotN>
6

>  <b_rotR>
0.162162

>  <b_single>
31

>  <b_triple>
0

>  <chi0v>
17.51

>  <chi0v_C>
13.1019

>  <chi1v>
10.3964

>  <chi1v_C>
5.57137

>  <chiral>
0

>  <chiral_u>
0

>  <nmol>
1

>  <reactive>
0

>  <rings>
5

>  <Weight>
441.451

>  <a_heavy>
33

>  <a_nB>
0

>  <a_nBr>
0

>  <a_nC>
23

>  <a_nCl>
0

>  <a_nF>
0

>  <a_nI>
0

>  <a_nN>
7

>  <a_nO>
3

>  <a_nP>
0

>  <a_nS>
0

>  <b_heavy>
37

>  <chi0>
22.7859

>  <chi0_C>
15.0956

>  <chi1>
16.131

>  <chi1_C>
7.46633

>  <FCharge>
0

>  <VAdjEq>
0.358235

>  <VAdjMa>
6.20945

>  <zagreb>
178

>  <balabanJ>
1.13657

>  <PEOE_PC+>
3.09426

>  <PEOE_PC->
-3.09426

>  <PEOE_RPC+>
0.0953868

>  <PEOE_RPC->
0.11538

>  <PEOE_VSA+0>
105.216

>  <PEOE_VSA+1>
98.1656

>  <PEOE_VSA+2>
45.601

>  <PEOE_VSA+3>
8.61901

>  <PEOE_VSA+4>
0

>  <PEOE_VSA+5>
34.3576

>  <PEOE_VSA+6>
0

>  <PEOE_VSA-0>
24.5098

>  <PEOE_VSA-1>
36.7647

>  <PEOE_VSA-2>
0

>  <PEOE_VSA-3>
0

>  <PEOE_VSA-4>
11.3652

>  <PEOE_VSA-5>
52.0659

>  <PEOE_VSA-6>
0.136891

>  <PEOE_VSA_FHYD>
0.765055

>  <PEOE_VSA_FNEG>
0.299525

>  <PEOE_VSA_FPNEG>
0.152514

>  <PEOE_VSA_FPOL>
0.234945

>  <PEOE_VSA_FPOS>
0.700475

>  <PEOE_VSA_FPPOS>
0.0824316

>  <PEOE_VSA_HYD>
318.876

>  <PEOE_VSA_NEG>
124.842

>  <PEOE_VSA_PNEG>
63.568

>  <PEOE_VSA_POL>
97.9255

>  <PEOE_VSA_POS>
291.959

>  <PEOE_VSA_PPOS>
34.3576

>  <PC+>
6.745

>  <PC->
-6.746

>  <Q_PC+>
6.745

>  <Q_PC->
-6.746

>  <Q_RPC+>
0.0972572

>  <Q_RPC->
0.0978358

>  <Q_VSA_FHYD>
0.478748

>  <Q_VSA_FNEG>
0.360747

>  <Q_VSA_FPNEG>
0.192363

>  <Q_VSA_FPOL>
0.521252

>  <Q_VSA_FPOS>
0.639253

>  <Q_VSA_FPPOS>
0.328889

>  <Q_VSA_HYD>
199.543

>  <Q_VSA_NEG>
150.36

>  <Q_VSA_PNEG>
80.177

>  <Q_VSA_POL>
217.258

>  <Q_VSA_POS>
266.442

>  <Q_VSA_PPOS>
137.081

>  <RPC+>
0.0972572

>  <RPC->
0.0978358

>  <lip_acc>
10

>  <lip_don>
1

>  <lip_druglike>
1

>  <lip_violation>
0

>  <opr_brigid>
28

>  <opr_leadlike>
0

>  <opr_nring>
5

>  <opr_nrot>
6

>  <opr_violation>
2

>  <E>
115.168

>  <E_ang>
7.3731

>  <E_ele>
32.6017

>  <E_nb>
95.7117

>  <E_oop>
0.0987048

>  <E_sol>
-25.5136

>  <E_stb>
1.81937

>  <E_str>
5.93209

>  <E_strain>
0.00409921

>  <E_tor>
4.23284

>  <E_vdw>
63.11

>  <E_rele>
0

>  <E_rnb>
5.68434e-014

>  <E_rsol>
5.68434e-014

>  <E_rvdw>
0

>  <Kier1>
24.6837

>  <Kier2>
11.3728

>  <Kier3>
5.40439

>  <KierA1>
16.3105

>  <KierA2>
7.4088

>  <KierA3>
3.48431

>  <KierFlex>
3.66186

>  <logS>
-2.74895

>  <MNDO_dipole>
8.14948

>  <MNDO_E>
-129670

>  <MNDO_Eele>
-1.01305e+006

>  <MNDO_HF>
39.5043

>  <MNDO_HOMO>
-9.51903

>  <MNDO_IP>
9.51903

>  <MNDO_LUMO>
-1.40539

>  <apol>
63.2551

>  <bpol>
33.5449

>  <mr>
12.0656

>  <dipole>
2.01948

>  <dipoleX>
1.05543

>  <dipoleY>
-1.70055

>  <dipoleZ>
-0.26928

>  <pmi>
11673.4

>  <pmiX>
7635.55

>  <pmiY>
2927.02

>  <pmiZ>
1110.84

>  <rgyr>
5.1423

>  <a_acc>
7

>  <a_acid>
0

>  <a_base>
0

>  <a_don>
1

>  <a_hyd>
19

>  <vsa_acc>
63.4311

>  <vsa_acid>
0

>  <vsa_base>
0

>  <vsa_don>
5.68258

>  <vsa_hyd>
272.654

>  <vsa_other>
59.1481

>  <vsa_pol>
69.1136

>  <PM3_dipole>
7.46828

>  <PM3_E>
-116047

>  <PM3_Eele>
-996955

>  <PM3_HF>
26.2269

>  <PM3_HOMO>
-9.33835

>  <PM3_IP>
9.33835

>  <PM3_LUMO>
-1.59125

>  <SlogP>
1.5822

>  <SlogP_VSA0>
0

>  <SlogP_VSA1>
89.5959

>  <SlogP_VSA2>
40.6477

>  <SlogP_VSA3>
73.7583

>  <SlogP_VSA4>
54.0956

>  <SlogP_VSA5>
0

>  <SlogP_VSA6>
0

>  <SlogP_VSA7>
183.661

>  <SlogP_VSA8>
0

>  <SlogP_VSA9>
0

>  <SMR>
11.8171

>  <SMR_VSA0>
71.5866

>  <SMR_VSA1>
73.3907

>  <SMR_VSA2>
16.7855

>  <SMR_VSA3>
6.37115

>  <SMR_VSA4>
9.80177

>  <SMR_VSA5>
173.859

>  <SMR_VSA6>
89.9635

>  <SMR_VSA7>
0

>  <ASA>
704.8

>  <ASA+>
380.072

>  <ASA->
224.607

>  <ASA_H>
462.784

>  <ASA_P>
242.016

>  <CASA+>
2563.59

>  <CASA->
1515.2

>  <DASA>
155.465

>  <DCASA>
1048.39

>  <FASA+>
0.539263

>  <FASA->
0.318682

>  <FASA_H>
0.656617

>  <FASA_P>
0.343383

>  <FCASA+>
3.63733

>  <FCASA->
2.14983

>  <VSA>
434.096

>  <TPSA>
125.04

>  <density>
0.78228

>  <vdw_area>
416.801

>  <vdw_vol>
564.314

>  <vsurf_A>
3.90951

>  <vsurf_CP>
0.0760399

>  <vsurf_CW1>
2.70801

>  <vsurf_CW2>
2.26171

>  <vsurf_CW3>
1.61279

>  <vsurf_CW4>
0.792612

>  <vsurf_CW5>
0.400588

>  <vsurf_CW6>
0.176102

>  <vsurf_CW7>
0.0486846

>  <vsurf_CW8>
0.0219958

>  <vsurf_D1>
974.25

>  <vsurf_D2>
582.25

>  <vsurf_D3>
433.25

>  <vsurf_D4>
361.75

>  <vsurf_D5>
301.5

>  <vsurf_D6>
242.375

>  <vsurf_D7>
145.125

>  <vsurf_D8>
88.625

>  <vsurf_DD12>
3.20156

>  <vsurf_DD13>
0.866025

>  <vsurf_DD23>
2.34521

>  <vsurf_DW12>
1.22474

>  <vsurf_DW13>
0.5

>  <vsurf_DW23>
0.866025

>  <vsurf_EDmin1>
-2.85725

>  <vsurf_EDmin2>
-2.81455

>  <vsurf_EDmin3>
-2.78194

>  <vsurf_EWmin1>
-8.26211

>  <vsurf_EWmin2>
-8.23135

>  <vsurf_EWmin3>
-8.07703

>  <vsurf_G>
1.3969

>  <vsurf_HB1>
450.75

>  <vsurf_HB2>
533.25

>  <vsurf_HB3>
492.625

>  <vsurf_HB4>
208.375

>  <vsurf_HB5>
86

>  <vsurf_HB6>
32.875

>  <vsurf_HB7>
10.125

>  <vsurf_HB8>
3.875

>  <vsurf_HL1>
0.206001

>  <vsurf_HL2>
0.0919143

>  <vsurf_ID1>
1.39963

>  <vsurf_ID2>
1.27499

>  <vsurf_ID3>
1.39134

>  <vsurf_ID4>
1.68186

>  <vsurf_ID5>
2.00079

>  <vsurf_ID6>
2.03119

>  <vsurf_ID7>
1.18019

>  <vsurf_ID8>
0.640359

>  <vsurf_IW1>
0.605942

>  <vsurf_IW2>
1.35754

>  <vsurf_IW3>
1.92111

>  <vsurf_IW4>
2.45483

>  <vsurf_IW5>
2.65095

>  <vsurf_IW6>
3.14265

>  <vsurf_IW7>
3.72116

>  <vsurf_IW8>
4.17387

>  <vsurf_R>
1.44077

>  <vsurf_S>
639.936

>  <vsurf_V>
922

>  <vsurf_W1>
1684.38

>  <vsurf_W2>
1067.38

>  <vsurf_W3>
593.875

>  <vsurf_W4>
219.5

>  <vsurf_W5>
89.25

>  <vsurf_W6>
33.25

>  <vsurf_W7>
10.125

>  <vsurf_W8>
3.875

>  <vsurf_Wp1>
1233.63

>  <vsurf_Wp2>
534.125

>  <vsurf_Wp3>
101.25

>  <vsurf_Wp4>
11.125

>  <vsurf_Wp5>
3.25

>  <vsurf_Wp6>
0.375

>  <vsurf_Wp7>
0

>  <vsurf_Wp8>
0

>  <dens>
1.10952

>  <glob>
0.0618315

>  <std_dim1>
4.73021

>  <std_dim2>
2.18695

>  <std_dim3>
1.17621

>  <vol>
397.875

>  <logP(o/w)>
0.11612

$$$$
D18.cdx
  MOE2008           3D

 53 57  0  0  0  0  0  0  0  0999 V2000
   -7.7480   24.4490   -0.9850 C   0  0  0  0  0  0  0  0  0  0  0  0
   -8.4830   25.1420   -1.3810 H   0  0  0  0  0  0  0  0  0  0  0  0
   -7.9430   23.1510   -1.2830 N   0  0  0  0  0  0  0  0  0  0  0  0
   -7.0600   22.2440   -0.8000 C   0  0  0  0  0  0  0  0  0  0  0  0
   -5.9840   22.7240   -0.0590 C   0  0  0  0  0  0  0  0  0  0  0  0
   -5.8660   24.0850    0.1980 C   0  0  0  0  0  0  0  0  0  0  0  0
   -6.7600   24.9890   -0.2620 N   0  0  0  0  0  0  0  0  0  0  0  0
   -4.8980   22.1100    0.5140 N   0  0  0  0  0  0  0  0  0  0  0  0
   -4.7050   21.1170    0.4760 H   0  0  0  0  0  0  0  0  0  0  0  0
   -4.1110   23.0420    1.1410 C   0  0  0  0  0  0  0  0  0  0  0  0
   -3.2120   22.7320    1.6590 H   0  0  0  0  0  0  0  0  0  0  0  0
   -4.6920   24.2880    0.9770 C   0  0  0  0  0  0  0  0  0  0  0  0
   -4.1810   25.5450    1.5000 C   0  0  0  0  0  0  0  0  0  0  0  0
   -2.7880   25.5930    2.1000 C   0  0  0  0  0  0  0  0  0  0  0  0
   -1.7670   26.0710    1.2800 N   0  0  0  0  0  0  0  0  0  0  0  0
   -0.3940   26.0740    1.7830 C   0  0  0  0  0  0  0  0  0  0  0  0
   -0.2330   27.0510    2.2550 H   0  0  0  0  0  0  0  0  0  0  0  0
   -0.2740   25.3100    2.5590 H   0  0  0  0  0  0  0  0  0  0  0  0
    0.6280   25.8540    0.6640 C   0  0  0  0  0  0  0  0  0  0  0  0
    0.4840   24.8590    0.2280 H   0  0  0  0  0  0  0  0  0  0  0  0
    1.6420   25.9080    1.0700 H   0  0  0  0  0  0  0  0  0  0  0  0
    0.4770   26.8250   -0.4320 N   0  0  0  0  0  0  0  0  0  0  0  0
   -0.8320   27.4680   -0.5700 C   0  0  0  0  0  0  0  0  0  0  0  0
   -0.7910   28.3880    0.0250 H   0  0  0  0  0  0  0  0  0  0  0  0
   -0.9980   27.7590   -1.6130 H   0  0  0  0  0  0  0  0  0  0  0  0
   -1.9800   26.5800   -0.0820 C   0  0  0  0  0  0  0  0  0  0  0  0
   -2.0770   25.7010   -0.7300 H   0  0  0  0  0  0  0  0  0  0  0  0
   -2.9210   27.1350   -0.1320 H   0  0  0  0  0  0  0  0  0  0  0  0
    1.4950   27.1950   -1.3110 C   0  0  0  0  0  0  0  0  0  0  0  0
    2.7720   26.4460   -1.2750 C   0  0  0  0  0  0  0  0  0  0  0  0
   -4.8100   26.5990    1.4820 O   0  0  0  0  0  0  0  0  0  0  0  0
   -2.6490   25.1810    3.2470 O   0  0  0  0  0  0  0  0  0  0  0  0
    1.4090   28.1170   -2.1170 O   0  0  0  0  0  0  0  0  0  0  0  0
    2.8010   25.0760   -1.5540 C   0  0  0  0  0  0  0  0  0  0  0  0
    1.8880   24.5390   -1.7970 H   0  0  0  0  0  0  0  0  0  0  0  0
    4.0190   24.3970   -1.5360 C   0  0  0  0  0  0  0  0  0  0  0  0
    4.0530   23.3310   -1.7490 H   0  0  0  0  0  0  0  0  0  0  0  0
    5.2000   25.0880   -1.2560 C   0  0  0  0  0  0  0  0  0  0  0  0
    6.1490   24.5570   -1.2460 H   0  0  0  0  0  0  0  0  0  0  0  0
    5.1690   26.4610   -1.0010 C   0  0  0  0  0  0  0  0  0  0  0  0
    6.0930   26.9960   -0.7970 H   0  0  0  0  0  0  0  0  0  0  0  0
    3.9540   27.1460   -1.0170 C   0  0  0  0  0  0  0  0  0  0  0  0
    3.9320   28.2160   -0.8300 H   0  0  0  0  0  0  0  0  0  0  0  0
   -7.2870   20.8350   -1.1100 C   0  0  0  0  0  0  0  0  0  0  0  0
   -7.5620   20.4310   -2.4230 C   0  0  0  0  0  0  0  0  0  0  0  0
   -7.6130   21.1550   -3.2300 H   0  0  0  0  0  0  0  0  0  0  0  0
   -7.7630   19.0850   -2.6840 C   0  0  0  0  0  0  0  0  0  0  0  0
   -7.9730   18.7360   -3.6910 H   0  0  0  0  0  0  0  0  0  0  0  0
   -7.7160   18.1230   -1.7410 N   0  0  0  0  0  0  0  0  0  0  0  0
   -7.4750   18.5260   -0.4770 C   0  0  0  0  0  0  0  0  0  0  0  0
   -7.4660   17.7340    0.2660 H   0  0  0  0  0  0  0  0  0  0  0  0
   -7.2590   19.8470   -0.1160 C   0  0  0  0  0  0  0  0  0  0  0  0
   -7.0980   20.0940    0.9280 H   0  0  0  0  0  0  0  0  0  0  0  0
  1  2  1  0  0  0  0
  1  3  1  0  0  0  0
  1  7  2  0  0  0  0
  3  4  2  0  0  0  0
  4  5  1  0  0  0  0
  4 44  1  0  0  0  0
  5  6  2  0  0  0  0
  5  8  1  0  0  0  0
  6  7  1  0  0  0  0
  6 12  1  0  0  0  0
  8  9  1  0  0  0  0
  8 10  1  0  0  0  0
 10 11  1  0  0  0  0
 10 12  2  0  0  0  0
 12 13  1  0  0  0  0
 13 14  1  0  0  0  0
 13 31  2  0  0  0  0
 14 15  1  0  0  0  0
 14 32  2  0  0  0  0
 15 16  1  0  0  0  0
 15 26  1  0  0  0  0
 16 17  1  0  0  0  0
 16 18  1  0  0  0  0
 16 19  1  0  0  0  0
 19 20  1  0  0  0  0
 19 21  1  0  0  0  0
 19 22  1  0  0  0  0
 22 23  1  0  0  0  0
 22 29  1  0  0  0  0
 23 24  1  0  0  0  0
 23 25  1  0  0  0  0
 23 26  1  0  0  0  0
 26 27  1  0  0  0  0
 26 28  1  0  0  0  0
 29 30  1  0  0  0  0
 29 33  2  0  0  0  0
 30 34  1  0  0  0  0
 30 42  2  0  0  0  0
 34 35  1  0  0  0  0
 34 36  2  0  0  0  0
 36 37  1  0  0  0  0
 36 38  1  0  0  0  0
 38 39  1  0  0  0  0
 38 40  2  0  0  0  0
 40 41  1  0  0  0  0
 40 42  1  0  0  0  0
 42 43  1  0  0  0  0
 44 45  1  0  0  0  0
 44 52  2  0  0  0  0
 45 46  1  0  0  0  0
 45 47  2  0  0  0  0
 47 48  1  0  0  0  0
 47 49  1  0  0  0  0
 49 50  2  0  0  0  0
 50 51  1  0  0  0  0
 50 52  1  0  0  0  0
 52 53  1  0  0  0  0
M  END
>  <Activity>
7.9208

>  <AM1_dipole>
5.96962

>  <AM1_E>
-127931

>  <AM1_Eele>
-1.0135e+006

>  <AM1_HF>
66.0133

>  <AM1_HOMO>
-9.68818

>  <AM1_IP>
9.68818

>  <AM1_LUMO>
-1.1437

>  <diameter>
18

>  <petitjean>
0.5

>  <petitjeanSC>
1

>  <radius>
9

>  <VDistEq>
3.8894

>  <VDistMa>
9.76578

>  <weinerPath>
3523

>  <weinerPol>
56

>  <BCUT_PEOE_0>
-2.71185

>  <BCUT_PEOE_1>
-0.639214

>  <BCUT_PEOE_2>
0.714053

>  <BCUT_PEOE_3>
2.65035

>  <BCUT_SLOGP_0>
-2.86001

>  <BCUT_SLOGP_1>
-0.547164

>  <BCUT_SLOGP_2>
0.805915

>  <BCUT_SLOGP_3>
2.50312

>  <BCUT_SMR_0>
-2.43203

>  <BCUT_SMR_1>
-0.489577

>  <BCUT_SMR_2>
0.854311

>  <BCUT_SMR_3>
2.92016

>  <GCUT_PEOE_0>
-0.851963

>  <GCUT_PEOE_1>
-0.406329

>  <GCUT_PEOE_2>
0.0910366

>  <GCUT_PEOE_3>
2.68498

>  <GCUT_SLOGP_0>
-0.9765

>  <GCUT_SLOGP_1>
-0.334894

>  <GCUT_SLOGP_2>
0.164454

>  <GCUT_SLOGP_3>
2.67078

>  <GCUT_SMR_0>
-0.508907

>  <GCUT_SMR_1>
-0.216057

>  <GCUT_SMR_2>
0.21826

>  <GCUT_SMR_3>
2.95853

>  <a_aro>
21

>  <a_count>
53

>  <a_IC>
86.8375

>  <a_ICM>
1.63844

>  <a_nH>
20

>  <b_1rotN>
6

>  <b_1rotR>
0.162162

>  <b_ar>
22

>  <b_count>
57

>  <b_double>
3

>  <b_rotN>
6

>  <b_rotR>
0.162162

>  <b_single>
32

>  <b_triple>
0

>  <chi0v>
17.6401

>  <chi0v_C>
13.6793

>  <chi1v>
10.5366

>  <chi1v_C>
6.19338

>  <chiral>
0

>  <chiral_u>
0

>  <nmol>
1

>  <reactive>
0

>  <rings>
5

>  <Weight>
440.463

>  <a_heavy>
33

>  <a_nB>
0

>  <a_nBr>
0

>  <a_nC>
24

>  <a_nCl>
0

>  <a_nF>
0

>  <a_nI>
0

>  <a_nN>
6

>  <a_nO>
3

>  <a_nP>
0

>  <a_nS>
0

>  <b_heavy>
37

>  <chi0>
22.7859

>  <chi0_C>
15.8028

>  <chi1>
16.131

>  <chi1_C>
8.37457

>  <FCharge>
0

>  <VAdjEq>
0.358235

>  <VAdjMa>
6.20945

>  <zagreb>
178

>  <balabanJ>
1.13657

>  <PEOE_PC+>
2.91787

>  <PEOE_PC->
-2.91787

>  <PEOE_RPC+>
0.101153

>  <PEOE_RPC->
0.122369

>  <PEOE_VSA+0>
107.424

>  <PEOE_VSA+1>
92.3846

>  <PEOE_VSA+2>
32.2019

>  <PEOE_VSA+3>
8.61901

>  <PEOE_VSA+4>
0

>  <PEOE_VSA+5>
34.3576

>  <PEOE_VSA+6>
0

>  <PEOE_VSA-0>
49.0196

>  <PEOE_VSA-1>
36.7647

>  <PEOE_VSA-2>
0

>  <PEOE_VSA-3>
0

>  <PEOE_VSA-4>
11.3652

>  <PEOE_VSA-5>
46.3833

>  <PEOE_VSA-6>
0.136891

>  <PEOE_VSA_FHYD>
0.779669

>  <PEOE_VSA_FNEG>
0.343168

>  <PEOE_VSA_FPNEG>
0.138264

>  <PEOE_VSA_FPOL>
0.220331

>  <PEOE_VSA_FPOS>
0.656832

>  <PEOE_VSA_FPPOS>
0.0820662

>  <PEOE_VSA_HYD>
326.414

>  <PEOE_VSA_NEG>
143.67

>  <PEOE_VSA_PNEG>
57.8854

>  <PEOE_VSA_POL>
92.243

>  <PEOE_VSA_POS>
274.987

>  <PEOE_VSA_PPOS>
34.3576

>  <PC+>
6.425

>  <PC->
-6.426

>  <Q_PC+>
6.425

>  <Q_PC->
-6.426

>  <Q_RPC+>
0.102101

>  <Q_RPC->
0.102708

>  <Q_VSA_FHYD>
0.510634

>  <Q_VSA_FNEG>
0.404118

>  <Q_VSA_FPNEG>
0.177937

>  <Q_VSA_FPOL>
0.489366

>  <Q_VSA_FPOS>
0.595882

>  <Q_VSA_FPPOS>
0.311429

>  <Q_VSA_HYD>
213.781

>  <Q_VSA_NEG>
169.187

>  <Q_VSA_PNEG>
74.4944

>  <Q_VSA_POL>
204.876

>  <Q_VSA_POS>
249.47

>  <Q_VSA_PPOS>
130.382

>  <RPC+>
0.102101

>  <RPC->
0.102708

>  <lip_acc>
9

>  <lip_don>
1

>  <lip_druglike>
1

>  <lip_violation>
0

>  <opr_brigid>
28

>  <opr_leadlike>
0

>  <opr_nring>
5

>  <opr_nrot>
6

>  <opr_violation>
2

>  <E>
101.373

>  <E_ang>
6.90295

>  <E_ele>
17.6645

>  <E_nb>
78.1529

>  <E_oop>
0.0794212

>  <E_sol>
-32.4658

>  <E_stb>
1.41986

>  <E_str>
5.75641

>  <E_strain>
0.00629289

>  <E_tor>
9.06117

>  <E_vdw>
60.4884

>  <E_rele>
0

>  <E_rnb>
2.84217e-014

>  <E_rsol>
2.84217e-014

>  <E_rvdw>
0

>  <Kier1>
24.6837

>  <Kier2>
11.3728

>  <Kier3>
5.40439

>  <KierA1>
16.3801

>  <KierA2>
7.44159

>  <KierA3>
3.50013

>  <KierFlex>
3.69376

>  <logS>
-4.03829

>  <MNDO_dipole>
6.69907

>  <MNDO_E>
-128169

>  <MNDO_Eele>
-1.00611e+006

>  <MNDO_HF>
52.8772

>  <MNDO_HOMO>
-9.80015

>  <MNDO_IP>
9.80015

>  <MNDO_LUMO>
-1.02799

>  <apol>
64.5819

>  <bpol>
33.3181

>  <mr>
12.2508

>  <dipole>
1.60372

>  <dipoleX>
1.05587

>  <dipoleY>
-1.20187

>  <dipoleZ>
0.112138

>  <pmi>
12147.6

>  <pmiX>
7976.62

>  <pmiY>
3282.57

>  <pmiZ>
888.417

>  <rgyr>
5.25159

>  <a_acc>
6

>  <a_acid>
0

>  <a_base>
0

>  <a_don>
1

>  <a_hyd>
20

>  <vsa_acc>
57.7485

>  <vsa_acid>
0

>  <vsa_base>
0

>  <vsa_don>
5.68258

>  <vsa_hyd>
279.48

>  <vsa_other>
59.1481

>  <vsa_pol>
63.4311

>  <PM3_dipole>
6.1158

>  <PM3_E>
-115396

>  <PM3_Eele>
-991990

>  <PM3_HF>
40.5926

>  <PM3_HOMO>
-9.55114

>  <PM3_IP>
9.55114

>  <PM3_LUMO>
-1.23236

>  <SlogP>
2.1872

>  <SlogP_VSA0>
0

>  <SlogP_VSA1>
72.8104

>  <SlogP_VSA2>
40.6477

>  <SlogP_VSA3>
73.7583

>  <SlogP_VSA4>
54.0956

>  <SlogP_VSA5>
0

>  <SlogP_VSA6>
0

>  <SlogP_VSA7>
202.161

>  <SlogP_VSA8>
0

>  <SlogP_VSA9>
0

>  <SMR>
12.0376

>  <SMR_VSA0>
71.5866

>  <SMR_VSA1>
56.6052

>  <SMR_VSA2>
16.7855

>  <SMR_VSA3>
6.37115

>  <SMR_VSA4>
10.2306

>  <SMR_VSA5>
191.931

>  <SMR_VSA6>
89.9635

>  <SMR_VSA7>
0

>  <ASA>
711.827

>  <ASA+>
359.061

>  <ASA->
247.298

>  <ASA_H>
483.766

>  <ASA_P>
228.061

>  <CASA+>
2306.96

>  <CASA->
1589.14

>  <DASA>
111.763

>  <DCASA>
717.829

>  <FASA+>
0.504421

>  <FASA->
0.347413

>  <FASA_H>
0.679612

>  <FASA_P>
0.320388

>  <FCASA+>
3.24091

>  <FCASA->
2.23247

>  <VSA>
440.233

>  <TPSA>
112.15

>  <density>
0.768175

>  <vdw_area>
418.657

>  <vdw_vol>
573.389

>  <vsurf_A>
3.72975

>  <vsurf_CP>
0.0827725

>  <vsurf_CW1>
2.70005

>  <vsurf_CW2>
2.27496

>  <vsurf_CW3>
1.5445

>  <vsurf_CW4>
0.710538

>  <vsurf_CW5>
0.359562

>  <vsurf_CW6>
0.151199

>  <vsurf_CW7>
0.0383084

>  <vsurf_CW8>
0.0169154

>  <vsurf_D1>
971.25

>  <vsurf_D2>
581

>  <vsurf_D3>
436.75

>  <vsurf_D4>
361.5

>  <vsurf_D5>
303.875

>  <vsurf_D6>
244.625

>  <vsurf_D7>
151.625

>  <vsurf_D8>
89.25

>  <vsurf_DD12>
3.53553

>  <vsurf_DD13>
0.5

>  <vsurf_DD23>
3.90512

>  <vsurf_DW12>
1.22474

>  <vsurf_DW13>
0.707107

>  <vsurf_DW23>
0.707107

>  <vsurf_EDmin1>
-2.85519

>  <vsurf_EDmin2>
-2.81982

>  <vsurf_EDmin3>
-2.81003

>  <vsurf_EWmin1>
-8.15926

>  <vsurf_EWmin2>
-8.06738

>  <vsurf_EWmin3>
-8.05596

>  <vsurf_G>
1.39983

>  <vsurf_HB1>
441.5

>  <vsurf_HB2>
523.5

>  <vsurf_HB3>
455.875

>  <vsurf_HB4>
184.25

>  <vsurf_HB5>
74.5

>  <vsurf_HB6>
26

>  <vsurf_HB7>
8

>  <vsurf_HB8>
2.625

>  <vsurf_HL1>
0.184316

>  <vsurf_HL2>
0.0781466

>  <vsurf_ID1>
1.175

>  <vsurf_ID2>
1.1166

>  <vsurf_ID3>
1.22132

>  <vsurf_ID4>
1.468

>  <vsurf_ID5>
1.73161

>  <vsurf_ID6>
1.81272

>  <vsurf_ID7>
0.981679

>  <vsurf_ID8>
0.685242

>  <vsurf_IW1>
0.561877

>  <vsurf_IW2>
1.10893

>  <vsurf_IW3>
1.65963

>  <vsurf_IW4>
2.19869

>  <vsurf_IW5>
2.62332

>  <vsurf_IW6>
3.38165

>  <vsurf_IW7>
5.19034

>  <vsurf_IW8>
5.71214

>  <vsurf_R>
1.44712

>  <vsurf_S>
649.654

>  <vsurf_V>
940.125

>  <vsurf_W1>
1678.88

>  <vsurf_W2>
1061.13

>  <vsurf_W3>
556.125

>  <vsurf_W4>
199.875

>  <vsurf_W5>
80.5

>  <vsurf_W6>
28.25

>  <vsurf_W7>
8.125

>  <vsurf_W8>
2.625

>  <vsurf_Wp1>
1237.38

>  <vsurf_Wp2>
537.625

>  <vsurf_Wp3>
100.25

>  <vsurf_Wp4>
15.625

>  <vsurf_Wp5>
6

>  <vsurf_Wp6>
2.25

>  <vsurf_Wp7>
0.125

>  <vsurf_Wp8>
0

>  <dens>
1.08388

>  <glob>
0.0732449

>  <std_dim1>
4.91084

>  <std_dim2>
2.01623

>  <std_dim3>
1.32906

>  <vol>
406.375

>  <logP(o/w)>
0.99706

$$$$
D18.cdx
  MOE2008           3D

 51 55  0  0  0  0  0  0  0  0999 V2000
   -6.9270   15.7690   -0.6590 C   0  0  0  0  0  0  0  0  0  0  0  0
   -7.7660   16.4370   -0.8230 H   0  0  0  0  0  0  0  0  0  0  0  0
   -7.0320   14.5460   -1.2160 N   0  0  0  0  0  0  0  0  0  0  0  0
   -6.0070   13.6630   -1.0460 C   0  0  0  0  0  0  0  0  0  0  0  0
   -4.9210   14.1130   -0.2910 C   0  0  0  0  0  0  0  0  0  0  0  0
   -4.9000   15.3910    0.2510 C   0  0  0  0  0  0  0  0  0  0  0  0
   -5.9180   16.2620    0.0720 N   0  0  0  0  0  0  0  0  0  0  0  0
   -3.7450   13.5010    0.0680 N   0  0  0  0  0  0  0  0  0  0  0  0
   -3.5080   12.5510   -0.2040 H   0  0  0  0  0  0  0  0  0  0  0  0
   -2.9850   14.3530    0.8220 C   0  0  0  0  0  0  0  0  0  0  0  0
   -2.0210   14.0310    1.1970 H   0  0  0  0  0  0  0  0  0  0  0  0
   -3.6760   15.5480    0.9620 C   0  0  0  0  0  0  0  0  0  0  0  0
   -3.2080   16.7170    1.6910 C   0  0  0  0  0  0  0  0  0  0  0  0
   -1.8110   16.7100    2.2850 C   0  0  0  0  0  0  0  0  0  0  0  0
   -0.7900   17.2180    1.4840 N   0  0  0  0  0  0  0  0  0  0  0  0
    0.5910   17.1520    1.9610 C   0  0  0  0  0  0  0  0  0  0  0  0
    0.7940   18.1000    2.4740 H   0  0  0  0  0  0  0  0  0  0  0  0
    0.7000   16.3480    2.6960 H   0  0  0  0  0  0  0  0  0  0  0  0
    1.5810   16.9520    0.8100 C   0  0  0  0  0  0  0  0  0  0  0  0
    1.3940   15.9820    0.3330 H   0  0  0  0  0  0  0  0  0  0  0  0
    2.6060   16.9530    1.1940 H   0  0  0  0  0  0  0  0  0  0  0  0
    1.4420   17.9760   -0.2370 N   0  0  0  0  0  0  0  0  0  0  0  0
    0.1630   18.6880   -0.2990 C   0  0  0  0  0  0  0  0  0  0  0  0
    0.2630   19.5660    0.3510 H   0  0  0  0  0  0  0  0  0  0  0  0
   -0.0170   19.0530   -1.3170 H   0  0  0  0  0  0  0  0  0  0  0  0
   -1.0140   17.8250    0.1650 C   0  0  0  0  0  0  0  0  0  0  0  0
   -1.1690   16.9970   -0.5370 H   0  0  0  0  0  0  0  0  0  0  0  0
   -1.9290   18.4240    0.1830 H   0  0  0  0  0  0  0  0  0  0  0  0
    2.4440   18.3310   -1.1400 C   0  0  0  0  0  0  0  0  0  0  0  0
    3.6880   17.5280   -1.1730 C   0  0  0  0  0  0  0  0  0  0  0  0
   -3.8690   17.7380    1.8490 O   0  0  0  0  0  0  0  0  0  0  0  0
   -1.6690   16.2310    3.4050 O   0  0  0  0  0  0  0  0  0  0  0  0
    2.3710   19.2820   -1.9120 O   0  0  0  0  0  0  0  0  0  0  0  0
    3.6510   16.1720   -1.5120 C   0  0  0  0  0  0  0  0  0  0  0  0
    2.7090   15.6840   -1.7480 H   0  0  0  0  0  0  0  0  0  0  0  0
    4.8390   15.4440   -1.5610 C   0  0  0  0  0  0  0  0  0  0  0  0
    4.8230   14.3880   -1.8210 H   0  0  0  0  0  0  0  0  0  0  0  0
    6.0560   16.0730   -1.2880 C   0  0  0  0  0  0  0  0  0  0  0  0
    6.9820   15.5040   -1.3320 H   0  0  0  0  0  0  0  0  0  0  0  0
    6.0910   17.4330   -0.9740 C   0  0  0  0  0  0  0  0  0  0  0  0
    7.0420   17.9200   -0.7750 H   0  0  0  0  0  0  0  0  0  0  0  0
    4.9060   18.1670   -0.9220 C   0  0  0  0  0  0  0  0  0  0  0  0
    4.9340   19.2280   -0.6890 H   0  0  0  0  0  0  0  0  0  0  0  0
   -6.0500   12.3600   -1.6120 N   0  0  0  0  0  0  0  0  0  0  0  0
   -7.0720   11.8230   -2.3600 C   0  0  0  0  0  0  0  0  0  0  0  0
   -7.9660   12.3910   -2.5800 H   0  0  0  0  0  0  0  0  0  0  0  0
   -6.6890   10.5470   -2.6950 C   0  0  0  0  0  0  0  0  0  0  0  0
   -7.2480    9.8300   -3.2800 H   0  0  0  0  0  0  0  0  0  0  0  0
   -5.4210   10.3930   -2.1090 C   0  0  0  0  0  0  0  0  0  0  0  0
   -4.7700    9.5290   -2.1350 H   0  0  0  0  0  0  0  0  0  0  0  0
   -5.0190   11.4830   -1.4510 N   0  0  0  0  0  0  0  0  0  0  0  0
  1  2  1  0  0  0  0
  1  3  1  0  0  0  0
  1  7  2  0  0  0  0
  3  4  2  0  0  0  0
  4  5  1  0  0  0  0
  4 44  1  0  0  0  0
  5  6  2  0  0  0  0
  5  8  1  0  0  0  0
  6  7  1  0  0  0  0
  6 12  1  0  0  0  0
  8  9  1  0  0  0  0
  8 10  1  0  0  0  0
 10 11  1  0  0  0  0
 10 12  2  0  0  0  0
 12 13  1  0  0  0  0
 13 14  1  0  0  0  0
 13 31  2  0  0  0  0
 14 15  1  0  0  0  0
 14 32  2  0  0  0  0
 15 16  1  0  0  0  0
 15 26  1  0  0  0  0
 16 17  1  0  0  0  0
 16 18  1  0  0  0  0
 16 19  1  0  0  0  0
 19 20  1  0  0  0  0
 19 21  1  0  0  0  0
 19 22  1  0  0  0  0
 22 23  1  0  0  0  0
 22 29  1  0  0  0  0
 23 24  1  0  0  0  0
 23 25  1  0  0  0  0
 23 26  1  0  0  0  0
 26 27  1  0  0  0  0
 26 28  1  0  0  0  0
 29 30  1  0  0  0  0
 29 33  2  0  0  0  0
 30 34  1  0  0  0  0
 30 42  2  0  0  0  0
 34 35  1  0  0  0  0
 34 36  2  0  0  0  0
 36 37  1  0  0  0  0
 36 38  1  0  0  0  0
 38 39  1  0  0  0  0
 38 40  2  0  0  0  0
 40 41  1  0  0  0  0
 40 42  1  0  0  0  0
 42 43  1  0  0  0  0
 44 45  1  0  0  0  0
 44 51  1  0  0  0  0
 45 46  1  0  0  0  0
 45 47  2  0  0  0  0
 47 48  1  0  0  0  0
 47 49  1  0  0  0  0
 49 50  1  0  0  0  0
 49 51  2  0  0  0  0
M  END
>  <Activity>
10.301

>  <AM1_dipole>
6.2218

>  <AM1_E>
-126438

>  <AM1_Eele>
-988650

>  <AM1_HF>
113.855

>  <AM1_HOMO>
-9.35851

>  <AM1_IP>
9.35851

>  <AM1_LUMO>
-1.10096

>  <diameter>
17

>  <petitjean>
0.470588

>  <petitjeanSC>
0.888889

>  <radius>
9

>  <VDistEq>
3.84504

>  <VDistMa>
9.6768

>  <weinerPath>
3225

>  <weinerPol>
53

>  <BCUT_PEOE_0>
-2.71185

>  <BCUT_PEOE_1>
-0.638465

>  <BCUT_PEOE_2>
0.695171

>  <BCUT_PEOE_3>
2.65035

>  <BCUT_SLOGP_0>
-2.86001

>  <BCUT_SLOGP_1>
-0.55265

>  <BCUT_SLOGP_2>
0.771979

>  <BCUT_SLOGP_3>
2.50303

>  <BCUT_SMR_0>
-2.43203

>  <BCUT_SMR_1>
-0.461134

>  <BCUT_SMR_2>
0.863595

>  <BCUT_SMR_3>
2.92016

>  <GCUT_PEOE_0>
-0.849418

>  <GCUT_PEOE_1>
-0.409464

>  <GCUT_PEOE_2>
0.0884801

>  <GCUT_PEOE_3>
2.67163

>  <GCUT_SLOGP_0>
-0.976513

>  <GCUT_SLOGP_1>
-0.352395

>  <GCUT_SLOGP_2>
0.164651

>  <GCUT_SLOGP_3>
2.63512

>  <GCUT_SMR_0>
-0.508911

>  <GCUT_SMR_1>
-0.215533

>  <GCUT_SMR_2>
0.241668

>  <GCUT_SMR_3>
2.94054

>  <a_aro>
20

>  <a_count>
51

>  <a_IC>
86.0692

>  <a_ICM>
1.68763

>  <a_nH>
19

>  <b_1rotN>
6

>  <b_1rotR>
0.166667

>  <b_ar>
21

>  <b_count>
55

>  <b_double>
3

>  <b_rotN>
6

>  <b_rotR>
0.166667

>  <b_single>
31

>  <b_triple>
0

>  <chi0v>
17.01

>  <chi0v_C>
12.6019

>  <chi1v>
10.1328

>  <chi1v_C>
5.36603

>  <chiral>
0

>  <chiral_u>
0

>  <nmol>
1

>  <reactive>
0

>  <rings>
5

>  <Weight>
429.44

>  <a_heavy>
32

>  <a_nB>
0

>  <a_nBr>
0

>  <a_nC>
22

>  <a_nCl>
0

>  <a_nF>
0

>  <a_nI>
0

>  <a_nN>
7

>  <a_nO>
3

>  <a_nP>
0

>  <a_nS>
0

>  <b_heavy>
36

>  <chi0>
22.0788

>  <chi0_C>
14.5183

>  <chi1>
15.631

>  <chi1_C>
7.22474

>  <FCharge>
0

>  <VAdjEq>
0.367089

>  <VAdjMa>
6.16993

>  <zagreb>
174

>  <balabanJ>
1.13766

>  <PEOE_PC+>
2.98273

>  <PEOE_PC->
-2.98273

>  <PEOE_RPC+>
0.0989534

>  <PEOE_RPC->
0.1193

>  <PEOE_VSA+0>
105.216

>  <PEOE_VSA+1>
74.7201

>  <PEOE_VSA+2>
38.9014

>  <PEOE_VSA+3>
19.8096

>  <PEOE_VSA+4>
0

>  <PEOE_VSA+5>
34.3576

>  <PEOE_VSA+6>
0

>  <PEOE_VSA-0>
36.7647

>  <PEOE_VSA-1>
36.7647

>  <PEOE_VSA-2>
0

>  <PEOE_VSA-3>
9.42104

>  <PEOE_VSA-4>
11.3652

>  <PEOE_VSA-5>
40.7008

>  <PEOE_VSA-6>
0.136891

>  <PEOE_VSA_FHYD>
0.787924

>  <PEOE_VSA_FNEG>
0.33113

>  <PEOE_VSA_FPNEG>
0.127899

>  <PEOE_VSA_FPOL>
0.212076

>  <PEOE_VSA_FPOS>
0.66887

>  <PEOE_VSA_FPPOS>
0.0841773

>  <PEOE_VSA_HYD>
321.597

>  <PEOE_VSA_NEG>
135.153

>  <PEOE_VSA_PNEG>
52.2028

>  <PEOE_VSA_POL>
86.5604

>  <PEOE_VSA_POS>
273.004

>  <PEOE_VSA_PPOS>
34.3576

>  <PC+>
6.664

>  <PC->
-6.665

>  <Q_PC+>
6.664

>  <Q_PC->
-6.665

>  <Q_RPC+>
0.0984394

>  <Q_RPC->
0.106077

>  <Q_VSA_FHYD>
0.436855

>  <Q_VSA_FNEG>
0.434676

>  <Q_VSA_FPNEG>
0.232701

>  <Q_VSA_FPOL>
0.563145

>  <Q_VSA_FPOS>
0.565324

>  <Q_VSA_FPPOS>
0.330443

>  <Q_VSA_HYD>
178.306

>  <Q_VSA_NEG>
177.416

>  <Q_VSA_PNEG>
94.9788

>  <Q_VSA_POL>
229.852

>  <Q_VSA_POS>
230.741

>  <Q_VSA_PPOS>
134.873

>  <RPC+>
0.0984394

>  <RPC->
0.106077

>  <lip_acc>
10

>  <lip_don>
1

>  <lip_druglike>
1

>  <lip_violation>
0

>  <opr_brigid>
27

>  <opr_leadlike>
0

>  <opr_nring>
5

>  <opr_nrot>
6

>  <opr_violation>
2

>  <E>
93.9822

>  <E_ang>
6.68854

>  <E_ele>
25.9856

>  <E_nb>
76.1236

>  <E_oop>
0.0735021

>  <E_sol>
-22.3965

>  <E_stb>
1.21776

>  <E_str>
5.71317

>  <E_strain>
0.00590008

>  <E_tor>
4.1656

>  <E_vdw>
50.138

>  <E_rele>
0

>  <E_rnb>
8.52651e-014

>  <E_rsol>
8.52651e-014

>  <E_rvdw>
0

>  <Kier1>
23.7284

>  <Kier2>
10.7266

>  <Kier3>
5.03472

>  <KierA1>
15.6809

>  <KierA2>
6.98536

>  <KierA3>
3.24481

>  <KierFlex>
3.42303

>  <logS>
-3.36642

>  <MNDO_dipole>
7.32467

>  <MNDO_E>
-126709

>  <MNDO_Eele>
-982447

>  <MNDO_HF>
69.7221

>  <MNDO_HOMO>
-9.37037

>  <MNDO_IP>
9.37037

>  <MNDO_LUMO>
-1.07046

>  <apol>
61.4951

>  <bpol>
32.8849

>  <mr>
11.6589

>  <dipole>
1.77241

>  <dipoleX>
0.563847

>  <dipoleY>
-1.58882

>  <dipoleZ>
-0.546975

>  <pmi>
10789.3

>  <pmiX>
7370.79

>  <pmiY>
2446.49

>  <pmiZ>
972.066

>  <rgyr>
5.01241

>  <a_acc>
6

>  <a_acid>
0

>  <a_base>
0

>  <a_don>
1

>  <a_hyd>
17

>  <vsa_acc>
61.487

>  <vsa_acid>
0

>  <vsa_base>
0

>  <vsa_don>
5.68258

>  <vsa_hyd>
254.764

>  <vsa_other>
70.3387

>  <vsa_pol>
67.1695

>  <PM3_dipole>
5.917

>  <PM3_E>
-113300

>  <PM3_Eele>
-968731

>  <PM3_HF>
37.3202

>  <PM3_HOMO>
-9.26673

>  <PM3_IP>
9.26673

>  <PM3_LUMO>
-1.35307

>  <SlogP>
1.3109

>  <SlogP_VSA0>
0

>  <SlogP_VSA1>
74.4644

>  <SlogP_VSA2>
40.6477

>  <SlogP_VSA3>
73.7583

>  <SlogP_VSA4>
54.0956

>  <SlogP_VSA5>
0

>  <SlogP_VSA6>
0

>  <SlogP_VSA7>
180.904

>  <SlogP_VSA8>
0

>  <SlogP_VSA9>
0

>  <SMR>
11.4267

>  <SMR_VSA0>
71.5866

>  <SMR_VSA1>
58.2593

>  <SMR_VSA2>
16.7855

>  <SMR_VSA3>
6.37115

>  <SMR_VSA4>
6.61619

>  <SMR_VSA5>
174.288

>  <SMR_VSA6>
89.9635

>  <SMR_VSA7>
0

>  <ASA>
689.09

>  <ASA+>
330.077

>  <ASA->
257.919

>  <ASA_H>
443.164

>  <ASA_P>
245.926

>  <CASA+>
2199.64

>  <CASA->
1719.03

>  <DASA>
72.158

>  <DCASA>
480.603

>  <FASA+>
0.479005

>  <FASA->
0.37429

>  <FASA_H>
0.643115

>  <FASA_P>
0.356885

>  <FCASA+>
3.19209

>  <FCASA->
2.49464

>  <VSA>
424.638

>  <TPSA>
117.08

>  <density>
0.784332

>  <vdw_area>
408.158

>  <vdw_vol>
547.523

>  <vsurf_A>
3.60877

>  <vsurf_CP>
0.0867053

>  <vsurf_CW1>
2.66539

>  <vsurf_CW2>
2.15505

>  <vsurf_CW3>
1.48526

>  <vsurf_CW4>
0.698241

>  <vsurf_CW5>
0.361198

>  <vsurf_CW6>
0.1675

>  <vsurf_CW7>
0.0545706

>  <vsurf_CW8>
0.0281492

>  <vsurf_D1>
980

>  <vsurf_D2>
582.125

>  <vsurf_D3>
434.375

>  <vsurf_D4>
366.375

>  <vsurf_D5>
310.25

>  <vsurf_D6>
246.75

>  <vsurf_D7>
143.625

>  <vsurf_D8>
84.125

>  <vsurf_DD12>
0.5

>  <vsurf_DD13>
1.58114

>  <vsurf_DD23>
1.11803

>  <vsurf_DW12>
0.5

>  <vsurf_DW13>
0.707107

>  <vsurf_DW23>
0.5

>  <vsurf_EDmin1>
-2.83629

>  <vsurf_EDmin2>
-2.83554

>  <vsurf_EDmin3>
-2.8219

>  <vsurf_EWmin1>
-8.77177

>  <vsurf_EWmin2>
-8.39497

>  <vsurf_EWmin3>
-8.23139

>  <vsurf_G>
1.38615

>  <vsurf_HB1>
381.375

>  <vsurf_HB2>
440.5

>  <vsurf_HB3>
423.875

>  <vsurf_HB4>
182.25

>  <vsurf_HB5>
78.75

>  <vsurf_HB6>
32.25

>  <vsurf_HB7>
10.125

>  <vsurf_HB8>
4.625

>  <vsurf_HL1>
0.187626

>  <vsurf_HL2>
0.0880246

>  <vsurf_ID1>
1.34421

>  <vsurf_ID2>
1.24806

>  <vsurf_ID3>
1.35177

>  <vsurf_ID4>
1.60626

>  <vsurf_ID5>
1.86857

>  <vsurf_ID6>
1.89978

>  <vsurf_ID7>
1.05992

>  <vsurf_ID8>
0.621511

>  <vsurf_IW1>
0.201021

>  <vsurf_IW2>
1.06584

>  <vsurf_IW3>
1.6286

>  <vsurf_IW4>
2.12963

>  <vsurf_IW5>
2.35629

>  <vsurf_IW6>
2.51554

>  <vsurf_IW7>
3.40547

>  <vsurf_IW8>
3.78582

>  <vsurf_R>
1.44356

>  <vsurf_S>
627.7

>  <vsurf_V>
906.125

>  <vsurf_W1>
1578

>  <vsurf_W2>
962.5

>  <vsurf_W3>
523.75

>  <vsurf_W4>
191.875

>  <vsurf_W5>
81.5

>  <vsurf_W6>
32.25

>  <vsurf_W7>
10.125

>  <vsurf_W8>
4.625

>  <vsurf_Wp1>
1196.63

>  <vsurf_Wp2>
522

>  <vsurf_Wp3>
99.875

>  <vsurf_Wp4>
9.625

>  <vsurf_Wp5>
2.75

>  <vsurf_Wp6>
0

>  <vsurf_Wp7>
0

>  <vsurf_Wp8>
0

>  <dens>
1.09901

>  <glob>
0.0625167

>  <std_dim1>
4.67331

>  <std_dim2>
2.12323

>  <std_dim3>
1.16848

>  <vol>
390.75

>  <logP(o/w)>
0.73512

$$$$
D18.cdx
  MOE2008           3D

 54 58  0  0  0  0  0  0  0  0999 V2000
   -6.4570    7.0120   -0.8390 C   0  0  0  0  0  0  0  0  0  0  0  0
   -7.3080    7.6430   -1.0740 H   0  0  0  0  0  0  0  0  0  0  0  0
   -6.5170    5.7470   -1.2980 N   0  0  0  0  0  0  0  0  0  0  0  0
   -5.4770    4.9010   -1.0420 C   0  0  0  0  0  0  0  0  0  0  0  0
   -4.4190    5.4360   -0.2980 C   0  0  0  0  0  0  0  0  0  0  0  0
   -4.4460    6.7560    0.1400 C   0  0  0  0  0  0  0  0  0  0  0  0
   -5.4770    7.5850   -0.1300 N   0  0  0  0  0  0  0  0  0  0  0  0
   -3.2360    4.8930    0.1420 N   0  0  0  0  0  0  0  0  0  0  0  0
   -2.9540    3.9350   -0.0450 H   0  0  0  0  0  0  0  0  0  0  0  0
   -2.5250    5.8290    0.8500 C   0  0  0  0  0  0  0  0  0  0  0  0
   -1.5650    5.5660    1.2770 H   0  0  0  0  0  0  0  0  0  0  0  0
   -3.2470    7.0130    0.8680 C   0  0  0  0  0  0  0  0  0  0  0  0
   -2.8370    8.2650    1.4990 C   0  0  0  0  0  0  0  0  0  0  0  0
   -1.4850    8.3520    2.1850 C   0  0  0  0  0  0  0  0  0  0  0  0
   -0.3970    8.6800    1.3780 N   0  0  0  0  0  0  0  0  0  0  0  0
    0.9470    8.6740    1.9550 C   0  0  0  0  0  0  0  0  0  0  0  0
    1.1450    9.6950    2.3050 H   0  0  0  0  0  0  0  0  0  0  0  0
    0.9800    8.0140    2.8280 H   0  0  0  0  0  0  0  0  0  0  0  0
    2.0040    8.2500    0.9320 C   0  0  0  0  0  0  0  0  0  0  0  0
    1.8180    7.2160    0.6200 H   0  0  0  0  0  0  0  0  0  0  0  0
    3.0000    8.2990    1.3830 H   0  0  0  0  0  0  0  0  0  0  0  0
    1.9690    9.0760   -0.2860 N   0  0  0  0  0  0  0  0  0  0  0  0
    0.7160    9.7810   -0.5700 C   0  0  0  0  0  0  0  0  0  0  0  0
    0.7930   10.7620   -0.0850 H   0  0  0  0  0  0  0  0  0  0  0  0
    0.6180    9.9540   -1.6470 H   0  0  0  0  0  0  0  0  0  0  0  0
   -0.5110    9.0320   -0.0440 C   0  0  0  0  0  0  0  0  0  0  0  0
   -0.6330    8.0890   -0.5910 H   0  0  0  0  0  0  0  0  0  0  0  0
   -1.4130    9.6310   -0.2050 H   0  0  0  0  0  0  0  0  0  0  0  0
    3.0430    9.2550   -1.1560 C   0  0  0  0  0  0  0  0  0  0  0  0
    4.2670    8.4470   -0.9540 C   0  0  0  0  0  0  0  0  0  0  0  0
   -3.5160    9.2880    1.4990 O   0  0  0  0  0  0  0  0  0  0  0  0
   -1.4340    8.1090    3.3850 O   0  0  0  0  0  0  0  0  0  0  0  0
    3.0500   10.0560   -2.0870 O   0  0  0  0  0  0  0  0  0  0  0  0
    4.2210    7.0520   -1.0470 C   0  0  0  0  0  0  0  0  0  0  0  0
    3.2870    6.5400   -1.2620 H   0  0  0  0  0  0  0  0  0  0  0  0
    5.3920    6.3130   -0.8770 C   0  0  0  0  0  0  0  0  0  0  0  0
    5.3670    5.2280   -0.9450 H   0  0  0  0  0  0  0  0  0  0  0  0
    6.6010    6.9670   -0.6320 C   0  0  0  0  0  0  0  0  0  0  0  0
    7.5140    6.3890   -0.5050 H   0  0  0  0  0  0  0  0  0  0  0  0
    6.6470    8.3610   -0.5630 C   0  0  0  0  0  0  0  0  0  0  0  0
    7.5930    8.8650   -0.3860 H   0  0  0  0  0  0  0  0  0  0  0  0
    5.4790    9.1060   -0.7310 C   0  0  0  0  0  0  0  0  0  0  0  0
    5.5170   10.1920   -0.6900 H   0  0  0  0  0  0  0  0  0  0  0  0
   -5.5020    3.5610   -1.5240 N   0  0  0  0  0  0  0  0  0  0  0  0
   -6.5240    2.9880   -2.2410 C   0  0  0  0  0  0  0  0  0  0  0  0
   -7.4180    3.5440   -2.4920 H   0  0  0  0  0  0  0  0  0  0  0  0
   -6.1450    1.6980   -2.5070 C   0  0  0  0  0  0  0  0  0  0  0  0
   -6.7080    0.9540   -3.0550 H   0  0  0  0  0  0  0  0  0  0  0  0
   -4.8620    1.5510   -1.9190 C   0  0  0  0  0  0  0  0  0  0  0  0
   -4.4730    2.6920   -1.3130 N   0  0  0  0  0  0  0  0  0  0  0  0
   -4.0540    0.3320   -1.9550 C   0  0  0  0  0  0  0  0  0  0  0  0
   -2.8390    0.4190   -1.3600 O   0  0  0  0  0  0  0  0  0  0  0  0
   -2.4520   -0.4730   -1.4790 H   0  0  0  0  0  0  0  0  0  0  0  0
   -4.4020   -0.7200   -2.4770 O   0  0  0  0  0  0  0  0  0  0  0  0
  1  2  1  0  0  0  0
  1  3  1  0  0  0  0
  1  7  2  0  0  0  0
  3  4  2  0  0  0  0
  4  5  1  0  0  0  0
  4 44  1  0  0  0  0
  5  6  2  0  0  0  0
  5  8  1  0  0  0  0
  6  7  1  0  0  0  0
  6 12  1  0  0  0  0
  8  9  1  0  0  0  0
  8 10  1  0  0  0  0
 10 11  1  0  0  0  0
 10 12  2  0  0  0  0
 12 13  1  0  0  0  0
 13 14  1  0  0  0  0
 13 31  2  0  0  0  0
 14 15  1  0  0  0  0
 14 32  2  0  0  0  0
 15 16  1  0  0  0  0
 15 26  1  0  0  0  0
 16 17  1  0  0  0  0
 16 18  1  0  0  0  0
 16 19  1  0  0  0  0
 19 20  1  0  0  0  0
 19 21  1  0  0  0  0
 19 22  1  0  0  0  0
 22 23  1  0  0  0  0
 22 29  1  0  0  0  0
 23 24  1  0  0  0  0
 23 25  1  0  0  0  0
 23 26  1  0  0  0  0
 26 27  1  0  0  0  0
 26 28  1  0  0  0  0
 29 30  1  0  0  0  0
 29 33  2  0  0  0  0
 30 34  1  0  0  0  0
 30 42  2  0  0  0  0
 34 35  1  0  0  0  0
 34 36  2  0  0  0  0
 36 37  1  0  0  0  0
 36 38  1  0  0  0  0
 38 39  1  0  0  0  0
 38 40  2  0  0  0  0
 40 41  1  0  0  0  0
 40 42  1  0  0  0  0
 42 43  1  0  0  0  0
 44 45  1  0  0  0  0
 44 50  1  0  0  0  0
 45 46  1  0  0  0  0
 45 47  2  0  0  0  0
 47 48  1  0  0  0  0
 47 49  1  0  0  0  0
 49 50  2  0  0  0  0
 49 51  1  0  0  0  0
 51 52  1  0  0  0  0
 51 54  2  0  0  0  0
 52 53  1  0  0  0  0
M  END
>  <Activity>
9.1191

>  <AM1_dipole>
3.95551

>  <AM1_E>
-144179

>  <AM1_Eele>
-1.13811e+006

>  <AM1_HF>
37.8047

>  <AM1_HOMO>
-9.65781

>  <AM1_IP>
9.65781

>  <AM1_LUMO>
-1.44172

>  <diameter>
19

>  <petitjean>
0.473684

>  <petitjeanSC>
0.9

>  <radius>
10

>  <VDistEq>
3.97707

>  <VDistMa>
9.93418

>  <weinerPath>
4184

>  <weinerPol>
59

>  <BCUT_PEOE_0>
-2.71185

>  <BCUT_PEOE_1>
-0.636617

>  <BCUT_PEOE_2>
0.693963

>  <BCUT_PEOE_3>
2.65035

>  <BCUT_SLOGP_0>
-2.86001

>  <BCUT_SLOGP_1>
-0.551997

>  <BCUT_SLOGP_2>
0.757546

>  <BCUT_SLOGP_3>
2.50303

>  <BCUT_SMR_0>
-2.43203

>  <BCUT_SMR_1>
-0.449933

>  <BCUT_SMR_2>
0.862073

>  <BCUT_SMR_3>
2.92016

>  <GCUT_PEOE_0>
-0.84933

>  <GCUT_PEOE_1>
-0.425848

>  <GCUT_PEOE_2>
0.0966365

>  <GCUT_PEOE_3>
2.68424

>  <GCUT_SLOGP_0>
-0.976515

>  <GCUT_SLOGP_1>
-0.379912

>  <GCUT_SLOGP_2>
0.171783

>  <GCUT_SLOGP_3>
2.64635

>  <GCUT_SMR_0>
-0.508911

>  <GCUT_SMR_1>
-0.222816

>  <GCUT_SMR_2>
0.248346

>  <GCUT_SMR_3>
2.95314

>  <a_aro>
20

>  <a_count>
54

>  <a_IC>
94.7503

>  <a_ICM>
1.75463

>  <a_nH>
19

>  <b_1rotN>
7

>  <b_1rotR>
0.179487

>  <b_ar>
21

>  <b_count>
58

>  <b_double>
4

>  <b_rotN>
7

>  <b_rotR>
0.179487

>  <b_single>
33

>  <b_triple>
0

>  <chi0v>
18.2881

>  <chi0v_C>
13.0246

>  <chi1v>
10.7313

>  <chi1v_C>
5.57137

>  <chiral>
0

>  <chiral_u>
0

>  <nmol>
1

>  <reactive>
0

>  <rings>
5

>  <Weight>
473.449

>  <a_heavy>
35

>  <a_nB>
0

>  <a_nBr>
0

>  <a_nC>
23

>  <a_nCl>
0

>  <a_nF>
0

>  <a_nI>
0

>  <a_nN>
7

>  <a_nO>
5

>  <a_nP>
0

>  <a_nS>
0

>  <b_heavy>
39

>  <chi0>
24.5264

>  <chi0_C>
14.9659

>  <chi1>
16.9356

>  <chi1_C>
7.46633

>  <FCharge>
0

>  <VAdjEq>
0.341858

>  <VAdjMa>
6.2854

>  <zagreb>
190

>  <balabanJ>
1.13421

>  <PEOE_PC+>
3.53882

>  <PEOE_PC->
-3.53882

>  <PEOE_RPC+>
0.0880144

>  <PEOE_RPC->
0.100553

>  <PEOE_VSA+0>
88.4697

>  <PEOE_VSA+1>
70.4547

>  <PEOE_VSA+2>
38.9014

>  <PEOE_VSA+3>
26.5091

>  <PEOE_VSA+4>
10.3242

>  <PEOE_VSA+5>
34.3576

>  <PEOE_VSA+6>
14.7085

>  <PEOE_VSA-0>
36.7647

>  <PEOE_VSA-1>
36.7647

>  <PEOE_VSA-2>
0

>  <PEOE_VSA-3>
9.42104

>  <PEOE_VSA-4>
11.3652

>  <PEOE_VSA-5>
54.2677

>  <PEOE_VSA-6>
7.90443

>  <PEOE_VSA_FHYD>
0.698038

>  <PEOE_VSA_FNEG>
0.355482

>  <PEOE_VSA_FPNEG>
0.167049

>  <PEOE_VSA_FPOL>
0.301962

>  <PEOE_VSA_FPOS>
0.644518

>  <PEOE_VSA_FPPOS>
0.134913

>  <PEOE_VSA_HYD>
307.285

>  <PEOE_VSA_NEG>
156.488

>  <PEOE_VSA_PNEG>
73.5373

>  <PEOE_VSA_POL>
132.928

>  <PEOE_VSA_POS>
283.725

>  <PEOE_VSA_PPOS>
59.3903

>  <PC+>
7.884

>  <PC->
-7.885

>  <Q_PC+>
7.884

>  <Q_PC->
-7.885

>  <Q_RPC+>
0.102232

>  <Q_RPC->
0.0896639

>  <Q_VSA_FHYD>
0.357315

>  <Q_VSA_FNEG>
0.451488

>  <Q_VSA_FPNEG>
0.26422

>  <Q_VSA_FPOL>
0.642685

>  <Q_VSA_FPOS>
0.548512

>  <Q_VSA_FPPOS>
0.378465

>  <Q_VSA_HYD>
157.295

>  <Q_VSA_NEG>
198.751

>  <Q_VSA_PNEG>
116.313

>  <Q_VSA_POL>
282.918

>  <Q_VSA_POS>
241.462

>  <Q_VSA_PPOS>
166.605

>  <RPC+>
0.102232

>  <RPC->
0.0896639

>  <lip_acc>
12

>  <lip_don>
2

>  <lip_druglike>
1

>  <lip_violation>
1

>  <opr_brigid>
27

>  <opr_leadlike>
0

>  <opr_nring>
5

>  <opr_nrot>
7

>  <opr_violation>
3

>  <E>
102.211

>  <E_ang>
9.16067

>  <E_ele>
28.9218

>  <E_nb>
79.4235

>  <E_oop>
0.0620452

>  <E_sol>
-27.7545

>  <E_stb>
1.39884

>  <E_str>
6.48619

>  <E_strain>
0.0056883

>  <E_tor>
5.67978

>  <E_vdw>
50.5017

>  <E_rele>
0

>  <E_rnb>
5.68434e-014

>  <E_rsol>
5.68434e-014

>  <E_rvdw>
0

>  <Kier1>
26.6009

>  <Kier2>
11.8068

>  <Kier3>
5.72255

>  <KierA1>
17.7331

>  <KierA2>
7.76868

>  <KierA3>
3.72981

>  <KierFlex>
3.93609

>  <logS>
-3.48874

>  <MNDO_dipole>
5.59446

>  <MNDO_E>
-144528

>  <MNDO_Eele>
-1.13138e+006

>  <MNDO_HF>
-39.3615

>  <MNDO_HOMO>
-9.60841

>  <MNDO_IP>
9.60841

>  <MNDO_LUMO>
-1.31451

>  <apol>
64.8591

>  <bpol>
33.8429

>  <mr>
12.3504

>  <dipole>
1.68329

>  <dipoleX>
0.777994

>  <dipoleY>
-1.48169

>  <dipoleZ>
-0.181015

>  <pmi>
13101.1

>  <pmiX>
7748.61

>  <pmiY>
4371.75

>  <pmiZ>
980.719

>  <rgyr>
5.26038

>  <a_acc>
8

>  <a_acid>
0

>  <a_base>
0

>  <a_don>
3

>  <a_hyd>
17

>  <vsa_acc>
61.487

>  <vsa_acid>
0

>  <vsa_base>
0

>  <vsa_don>
5.68258

>  <vsa_hyd>
241.164

>  <vsa_other>
85.0472

>  <vsa_pol>
94.3034

>  <PM3_dipole>
3.85722

>  <PM3_E>
-129588

>  <PM3_Eele>
-1.11785e+006

>  <PM3_HF>
-50.3388

>  <PM3_HOMO>
-9.52284

>  <PM3_IP>
9.52284

>  <PM3_LUMO>
-1.65252

>  <SlogP>
1.0091

>  <SlogP_VSA0>
0

>  <SlogP_VSA1>
82.2099

>  <SlogP_VSA2>
40.6477

>  <SlogP_VSA3>
99.1435

>  <SlogP_VSA4>
80.7145

>  <SlogP_VSA5>
0

>  <SlogP_VSA6>
0

>  <SlogP_VSA7>
163.69

>  <SlogP_VSA8>
0

>  <SlogP_VSA9>
0

>  <SMR>
12.1226

>  <SMR_VSA0>
95.4489

>  <SMR_VSA1>
58.2593

>  <SMR_VSA2>
42.1708

>  <SMR_VSA3>
9.1279

>  <SMR_VSA4>
6.61619

>  <SMR_VSA5>
157.073

>  <SMR_VSA6>
97.709

>  <SMR_VSA7>
0

>  <ASA>
735.875

>  <ASA+>
329.027

>  <ASA->
307.079

>  <ASA_H>
385.059

>  <ASA_P>
350.816

>  <CASA+>
2594.05

>  <CASA->
2421.32

>  <DASA>
21.9478

>  <DCASA>
172.73

>  <FASA+>
0.447124

>  <FASA->
0.417298

>  <FASA_H>
0.523267

>  <FASA_P>
0.476733

>  <FCASA+>
3.52512

>  <FCASA->
3.2904

>  <VSA>
455.92

>  <TPSA>
154.38

>  <density>
0.813971

>  <vdw_area>
440.213

>  <vdw_vol>
581.654

>  <vsurf_A>
2.66851

>  <vsurf_CP>
0.066378

>  <vsurf_CW1>
2.69251

>  <vsurf_CW2>
2.3293

>  <vsurf_CW3>
1.69229

>  <vsurf_CW4>
0.824196

>  <vsurf_CW5>
0.437751

>  <vsurf_CW6>
0.212454

>  <vsurf_CW7>
0.0818029

>  <vsurf_CW8>
0.0482403

>  <vsurf_D1>
983.25

>  <vsurf_D2>
595.25

>  <vsurf_D3>
441

>  <vsurf_D4>
360.25

>  <vsurf_D5>
298

>  <vsurf_D6>
241

>  <vsurf_D7>
154.5

>  <vsurf_D8>
97.5

>  <vsurf_DD12>
0.5

>  <vsurf_DD13>
0.5

>  <vsurf_DD23>
1

>  <vsurf_DW12>
0.866025

>  <vsurf_DW13>
1.22474

>  <vsurf_DW23>
0.5

>  <vsurf_EDmin1>
-2.88831

>  <vsurf_EDmin2>
-2.82256

>  <vsurf_EDmin3>
-2.80158

>  <vsurf_EWmin1>
-11.0302

>  <vsurf_EWmin2>
-9.92844

>  <vsurf_EWmin3>
-9.86495

>  <vsurf_G>
1.4167

>  <vsurf_HB1>
497.25

>  <vsurf_HB2>
584.25

>  <vsurf_HB3>
519.5

>  <vsurf_HB4>
230.625

>  <vsurf_HB5>
104

>  <vsurf_HB6>
44.25

>  <vsurf_HB7>
18.5

>  <vsurf_HB8>
9.625

>  <vsurf_HL1>
0.245181

>  <vsurf_HL2>
0.12526

>  <vsurf_ID1>
1.11453

>  <vsurf_ID2>
0.935643

>  <vsurf_ID3>
1.06997

>  <vsurf_ID4>
1.44423

>  <vsurf_ID5>
1.81225

>  <vsurf_ID6>
1.89829

>  <vsurf_ID7>
0.672474

>  <vsurf_ID8>
0.580797

>  <vsurf_IW1>
0.395249

>  <vsurf_IW2>
0.993122

>  <vsurf_IW3>
1.3821

>  <vsurf_IW4>
1.55928

>  <vsurf_IW5>
1.70329

>  <vsurf_IW6>
1.97601

>  <vsurf_IW7>
2.54542

>  <vsurf_IW8>
2.38497

>  <vsurf_R>
1.44598

>  <vsurf_S>
672.38

>  <vsurf_V>
972.25

>  <vsurf_W1>
1767.75

>  <vsurf_W2>
1150.75

>  <vsurf_W3>
639.25

>  <vsurf_W4>
244.5

>  <vsurf_W5>
108.125

>  <vsurf_W6>
45.125

>  <vsurf_W7>
18.625

>  <vsurf_W8>
9.625

>  <vsurf_Wp1>
1270.5

>  <vsurf_Wp2>
566.5

>  <vsurf_Wp3>
119.75

>  <vsurf_Wp4>
13.875

>  <vsurf_Wp5>
4.125

>  <vsurf_Wp6>
0.875

>  <vsurf_Wp7>
0.125

>  <vsurf_Wp8>
0

>  <dens>
1.13844

>  <glob>
0.0587118

>  <std_dim1>
4.70138

>  <std_dim2>
2.42805

>  <std_dim3>
1.13917

>  <vol>
415.875

>  <logP(o/w)>
0.37312

$$$$
D18.cdx
  MOE2008           3D

 54 58  0  0  0  0  0  0  0  0999 V2000
   -6.1230   12.1600    0.7360 C   0  0  0  0  0  0  0  0  0  0  0  0
   -6.8540   12.9520    0.8660 H   0  0  0  0  0  0  0  0  0  0  0  0
   -6.5590   11.0560    0.0950 N   0  0  0  0  0  0  0  0  0  0  0  0
   -5.6840   10.0280   -0.1000 C   0  0  0  0  0  0  0  0  0  0  0  0
   -4.3910   10.2140    0.3950 C   0  0  0  0  0  0  0  0  0  0  0  0
   -4.0300   11.3860    1.0460 C   0  0  0  0  0  0  0  0  0  0  0  0
   -4.9020   12.4020    1.2310 N   0  0  0  0  0  0  0  0  0  0  0  0
   -3.2830    9.4030    0.3720 N   0  0  0  0  0  0  0  0  0  0  0  0
   -3.2810    8.4780   -0.0470 H   0  0  0  0  0  0  0  0  0  0  0  0
   -2.2310   10.0320    0.9830 C   0  0  0  0  0  0  0  0  0  0  0  0
   -1.2710    9.5350    1.0550 H   0  0  0  0  0  0  0  0  0  0  0  0
   -2.6590   11.2770    1.4190 C   0  0  0  0  0  0  0  0  0  0  0  0
   -1.8380   12.2640    2.1030 C   0  0  0  0  0  0  0  0  0  0  0  0
   -0.3590   11.9950    2.2990 C   0  0  0  0  0  0  0  0  0  0  0  0
    0.4990   12.4570    1.3060 N   0  0  0  0  0  0  0  0  0  0  0  0
    1.9350   12.1940    1.4080 C   0  0  0  0  0  0  0  0  0  0  0  0
    2.1820   11.7160    2.3610 H   0  0  0  0  0  0  0  0  0  0  0  0
    2.1820   11.4850    0.6080 H   0  0  0  0  0  0  0  0  0  0  0  0
    2.7600   13.4780    1.2370 C   0  0  0  0  0  0  0  0  0  0  0  0
    3.8180   13.2120    1.1970 H   0  0  0  0  0  0  0  0  0  0  0  0
    2.6060   14.1430    2.0950 H   0  0  0  0  0  0  0  0  0  0  0  0
    2.3370   14.2240    0.0390 N   0  0  0  0  0  0  0  0  0  0  0  0
    0.8980   14.4900   -0.0460 C   0  0  0  0  0  0  0  0  0  0  0  0
    0.6580   15.1830    0.7690 H   0  0  0  0  0  0  0  0  0  0  0  0
    0.6400   14.9850   -0.9870 H   0  0  0  0  0  0  0  0  0  0  0  0
    0.0840   13.2020    0.1070 C   0  0  0  0  0  0  0  0  0  0  0  0
    0.2610   12.5400   -0.7490 H   0  0  0  0  0  0  0  0  0  0  0  0
   -0.9810   13.4410    0.1260 H   0  0  0  0  0  0  0  0  0  0  0  0
    3.1720   14.6690   -0.9820 C   0  0  0  0  0  0  0  0  0  0  0  0
    4.6370   14.5730   -0.8010 C   0  0  0  0  0  0  0  0  0  0  0  0
   -2.2590   13.3400    2.5190 O   0  0  0  0  0  0  0  0  0  0  0  0
   -0.0240   11.3760    3.3030 O   0  0  0  0  0  0  0  0  0  0  0  0
    2.7760   15.1440   -2.0430 O   0  0  0  0  0  0  0  0  0  0  0  0
    5.2700   15.2800    0.2270 C   0  0  0  0  0  0  0  0  0  0  0  0
    4.6930   15.8920    0.9150 H   0  0  0  0  0  0  0  0  0  0  0  0
    6.6560   15.2000    0.3620 C   0  0  0  0  0  0  0  0  0  0  0  0
    7.1570   15.7420    1.1600 H   0  0  0  0  0  0  0  0  0  0  0  0
    7.4020   14.4330   -0.5350 C   0  0  0  0  0  0  0  0  0  0  0  0
    8.4830   14.3760   -0.4300 H   0  0  0  0  0  0  0  0  0  0  0  0
    6.7680   13.7470   -1.5740 C   0  0  0  0  0  0  0  0  0  0  0  0
    7.3560   13.1620   -2.2770 H   0  0  0  0  0  0  0  0  0  0  0  0
    5.3820   13.8210   -1.7140 C   0  0  0  0  0  0  0  0  0  0  0  0
    4.8880   13.2980   -2.5290 H   0  0  0  0  0  0  0  0  0  0  0  0
   -6.0760    8.8410   -0.7750 N   0  0  0  0  0  0  0  0  0  0  0  0
   -7.3210    8.5620   -1.2880 C   0  0  0  0  0  0  0  0  0  0  0  0
   -8.1350    9.2700   -1.2050 H   0  0  0  0  0  0  0  0  0  0  0  0
   -7.2440    7.3120   -1.8500 C   0  0  0  0  0  0  0  0  0  0  0  0
   -8.0400    6.7740   -2.3460 H   0  0  0  0  0  0  0  0  0  0  0  0
   -5.9110    6.8970   -1.6360 C   0  0  0  0  0  0  0  0  0  0  0  0
   -5.1960    7.8220   -0.9840 N   0  0  0  0  0  0  0  0  0  0  0  0
   -5.2810    5.6180   -2.0410 C   0  0  0  0  0  0  0  0  0  0  0  0
   -4.4290    5.8020   -2.7030 H   0  0  0  0  0  0  0  0  0  0  0  0
   -5.9920    4.9780   -2.5740 H   0  0  0  0  0  0  0  0  0  0  0  0
   -4.9250    5.0700   -1.1620 H   0  0  0  0  0  0  0  0  0  0  0  0
  1  2  1  0  0  0  0
  1  3  1  0  0  0  0
  1  7  2  0  0  0  0
  3  4  2  0  0  0  0
  4  5  1  0  0  0  0
  4 44  1  0  0  0  0
  5  6  2  0  0  0  0
  5  8  1  0  0  0  0
  6  7  1  0  0  0  0
  6 12  1  0  0  0  0
  8  9  1  0  0  0  0
  8 10  1  0  0  0  0
 10 11  1  0  0  0  0
 10 12  2  0  0  0  0
 12 13  1  0  0  0  0
 13 14  1  0  0  0  0
 13 31  2  0  0  0  0
 14 15  1  0  0  0  0
 14 32  2  0  0  0  0
 15 16  1  0  0  0  0
 15 26  1  0  0  0  0
 16 17  1  0  0  0  0
 16 18  1  0  0  0  0
 16 19  1  0  0  0  0
 19 20  1  0  0  0  0
 19 21  1  0  0  0  0
 19 22  1  0  0  0  0
 22 23  1  0  0  0  0
 22 29  1  0  0  0  0
 23 24  1  0  0  0  0
 23 25  1  0  0  0  0
 23 26  1  0  0  0  0
 26 27  1  0  0  0  0
 26 28  1  0  0  0  0
 29 30  1  0  0  0  0
 29 33  2  0  0  0  0
 30 34  1  0  0  0  0
 30 42  2  0  0  0  0
 34 35  1  0  0  0  0
 34 36  2  0  0  0  0
 36 37  1  0  0  0  0
 36 38  1  0  0  0  0
 38 39  1  0  0  0  0
 38 40  2  0  0  0  0
 40 41  1  0  0  0  0
 40 42  1  0  0  0  0
 42 43  1  0  0  0  0
 44 45  1  0  0  0  0
 44 50  1  0  0  0  0
 45 46  1  0  0  0  0
 45 47  2  0  0  0  0
 47 48  1  0  0  0  0
 47 49  1  0  0  0  0
 49 50  2  0  0  0  0
 49 51  1  0  0  0  0
 51 52  1  0  0  0  0
 51 53  1  0  0  0  0
 51 54  1  0  0  0  0
M  END
>  <Activity>
9.8239

>  <AM1_dipole>
6.12743

>  <AM1_E>
-130034

>  <AM1_Eele>
-1.033e+006

>  <AM1_HF>
101.343

>  <AM1_HOMO>
-9.26318

>  <AM1_IP>
9.26318

>  <AM1_LUMO>
-1.0821

>  <diameter>
18

>  <petitjean>
0.5

>  <petitjeanSC>
1

>  <radius>
9

>  <VDistEq>
3.88955

>  <VDistMa>
9.7653

>  <weinerPath>
3522

>  <weinerPol>
55

>  <BCUT_PEOE_0>
-2.71185

>  <BCUT_PEOE_1>
-0.626788

>  <BCUT_PEOE_2>
0.633947

>  <BCUT_PEOE_3>
2.65035

>  <BCUT_SLOGP_0>
-2.86001

>  <BCUT_SLOGP_1>
-0.543636

>  <BCUT_SLOGP_2>
0.711239

>  <BCUT_SLOGP_3>
2.50303

>  <BCUT_SMR_0>
-2.43203

>  <BCUT_SMR_1>
-0.414679

>  <BCUT_SMR_2>
0.855783

>  <BCUT_SMR_3>
2.92016

>  <GCUT_PEOE_0>
-0.84941

>  <GCUT_PEOE_1>
-0.402468

>  <GCUT_PEOE_2>
0.0715808

>  <GCUT_PEOE_3>
2.68546

>  <GCUT_SLOGP_0>
-0.976513

>  <GCUT_SLOGP_1>
-0.348621

>  <GCUT_SLOGP_2>
0.146613

>  <GCUT_SLOGP_3>
2.65383

>  <GCUT_SMR_0>
-0.508913

>  <GCUT_SMR_1>
-0.20985

>  <GCUT_SMR_2>
0.240061

>  <GCUT_SMR_3>
2.95491

>  <a_aro>
20

>  <a_count>
54

>  <a_IC>
90.077

>  <a_ICM>
1.66809

>  <a_nH>
21

>  <b_1rotN>
6

>  <b_1rotR>
0.162162

>  <b_ar>
21

>  <b_count>
58

>  <b_double>
3

>  <b_rotN>
6

>  <b_rotR>
0.162162

>  <b_single>
34

>  <b_triple>
0

>  <chi0v>
17.9326

>  <chi0v_C>
13.5246

>  <chi1v>
10.5536

>  <chi1v_C>
5.82137

>  <chiral>
0

>  <chiral_u>
0

>  <nmol>
1

>  <reactive>
0

>  <rings>
5

>  <Weight>
443.467

>  <a_heavy>
33

>  <a_nB>
0

>  <a_nBr>
0

>  <a_nC>
23

>  <a_nCl>
0

>  <a_nF>
0

>  <a_nI>
0

>  <a_nN>
7

>  <a_nO>
3

>  <a_nP>
0

>  <a_nS>
0

>  <b_heavy>
37

>  <chi0>
22.949

>  <chi0_C>
15.3885

>  <chi1>
16.0249

>  <chi1_C>
7.71034

>  <FCharge>
0

>  <VAdjEq>
0.358235

>  <VAdjMa>
6.20945

>  <zagreb>
180

>  <balabanJ>
1.13792

>  <PEOE_PC+>
2.99699

>  <PEOE_PC->
-2.99699

>  <PEOE_RPC+>
0.0984824

>  <PEOE_RPC->
0.118732

>  <PEOE_VSA+0>
101.266

>  <PEOE_VSA+1>
77.1543

>  <PEOE_VSA+2>
38.9014

>  <PEOE_VSA+3>
19.8096

>  <PEOE_VSA+4>
0

>  <PEOE_VSA+5>
34.3576

>  <PEOE_VSA+6>
0

>  <PEOE_VSA-0>
55.5124

>  <PEOE_VSA-1>
36.7647

>  <PEOE_VSA-2>
0

>  <PEOE_VSA-3>
9.42104

>  <PEOE_VSA-4>
11.3652

>  <PEOE_VSA-5>
40.7008

>  <PEOE_VSA-6>
0.136891

>  <PEOE_VSA_FHYD>
0.796515

>  <PEOE_VSA_FNEG>
0.361788

>  <PEOE_VSA_FPNEG>
0.122718

>  <PEOE_VSA_FPOL>
0.203485

>  <PEOE_VSA_FPOS>
0.638212

>  <PEOE_VSA_FPPOS>
0.0807673

>  <PEOE_VSA_HYD>
338.829

>  <PEOE_VSA_NEG>
153.901

>  <PEOE_VSA_PNEG>
52.2028

>  <PEOE_VSA_POL>
86.5604

>  <PEOE_VSA_POS>
271.489

>  <PEOE_VSA_PPOS>
34.3576

>  <PC+>
6.664

>  <PC->
-6.665

>  <Q_PC+>
6.664

>  <Q_PC->
-6.665

>  <Q_RPC+>
0.0984394

>  <Q_RPC->
0.106077

>  <Q_VSA_FHYD>
0.459668

>  <Q_VSA_FNEG>
0.417068

>  <Q_VSA_FPNEG>
0.223275

>  <Q_VSA_FPOL>
0.540332

>  <Q_VSA_FPOS>
0.582932

>  <Q_VSA_FPPOS>
0.317057

>  <Q_VSA_HYD>
195.538

>  <Q_VSA_NEG>
177.416

>  <Q_VSA_PNEG>
94.9788

>  <Q_VSA_POL>
229.852

>  <Q_VSA_POS>
247.973

>  <Q_VSA_PPOS>
134.873

>  <RPC+>
0.0984394

>  <RPC->
0.106077

>  <lip_acc>
10

>  <lip_don>
1

>  <lip_druglike>
1

>  <lip_violation>
0

>  <opr_brigid>
27

>  <opr_leadlike>
0

>  <opr_nring>
5

>  <opr_nrot>
6

>  <opr_violation>
2

>  <E>
94.0103

>  <E_ang>
7.91521

>  <E_ele>
26.0168

>  <E_nb>
77.138

>  <E_oop>
0.0489217

>  <E_sol>
-25.3836

>  <E_stb>
1.17665

>  <E_str>
5.79773

>  <E_strain>
0.00572242

>  <E_tor>
1.93383

>  <E_vdw>
51.1211

>  <E_rele>
0

>  <E_rnb>
0

>  <E_rsol>
0

>  <E_rvdw>
0

>  <Kier1>
24.6837

>  <Kier2>
10.9477

>  <Kier3>
5.25931

>  <KierA1>
16.5375

>  <KierA2>
7.23478

>  <KierA3>
3.44099

>  <KierFlex>
3.62561

>  <logS>
-3.67981

>  <MNDO_dipole>
5.82342

>  <MNDO_E>
-130323

>  <MNDO_Eele>
-1.02449e+006

>  <MNDO_HF>
39.1717

>  <MNDO_HOMO>
-9.346

>  <MNDO_IP>
9.346

>  <MNDO_LUMO>
-1.06698

>  <apol>
64.5887

>  <bpol>
35.0713

>  <mr>
12.1131

>  <dipole>
1.3953

>  <dipoleX>
0.41147

>  <dipoleY>
-1.22251

>  <dipoleZ>
-0.532003

>  <pmi>
12776.9

>  <pmiX>
8843.28

>  <pmiY>
3030.62

>  <pmiZ>
903.039

>  <rgyr>
5.36763

>  <a_acc>
6

>  <a_acid>
0

>  <a_base>
0

>  <a_don>
1

>  <a_hyd>
18

>  <vsa_acc>
61.487

>  <vsa_acid>
0

>  <vsa_base>
0

>  <vsa_don>
5.68258

>  <vsa_hyd>
270.572

>  <vsa_other>
70.3387

>  <vsa_pol>
67.1695

>  <PM3_dipole>
5.75227

>  <PM3_E>
-116757

>  <PM3_Eele>
-1.01539e+006

>  <PM3_HF>
24.0775

>  <PM3_HOMO>
-9.17786

>  <PM3_IP>
9.17786

>  <PM3_LUMO>
-1.31249

>  <SlogP>
1.61932

>  <SlogP_VSA0>
0

>  <SlogP_VSA1>
74.4644

>  <SlogP_VSA2>
40.6477

>  <SlogP_VSA3>
73.7583

>  <SlogP_VSA4>
56.8523

>  <SlogP_VSA5>
0

>  <SlogP_VSA6>
0

>  <SlogP_VSA7>
163.69

>  <SlogP_VSA8>
0

>  <SlogP_VSA9>
33.326

>  <SMR>
11.9004

>  <SMR_VSA0>
71.5866

>  <SMR_VSA1>
58.2593

>  <SMR_VSA2>
16.7855

>  <SMR_VSA3>
9.1279

>  <SMR_VSA4>
6.61619

>  <SMR_VSA5>
157.073

>  <SMR_VSA6>
89.9635

>  <SMR_VSA7>
33.326

>  <ASA>
728.21

>  <ASA+>
309.224

>  <ASA->
258.607

>  <ASA_H>
481.463

>  <ASA_P>
246.747

>  <CASA+>
2060.67

>  <CASA->
1723.62

>  <DASA>
50.6168

>  <DCASA>
337.052

>  <FASA+>
0.424636

>  <FASA->
0.355127

>  <FASA_H>
0.66116

>  <FASA_P>
0.33884

>  <FCASA+>
2.82977

>  <FCASA->
2.36692

>  <VSA>
446.323

>  <TPSA>
117.08

>  <density>
0.775356

>  <vdw_area>
425.39

>  <vdw_vol>
571.952

>  <vsurf_A>
2.96202

>  <vsurf_CP>
0.0846247

>  <vsurf_CW1>
2.62199

>  <vsurf_CW2>
2.04811

>  <vsurf_CW3>
1.37885

>  <vsurf_CW4>
0.657596

>  <vsurf_CW5>
0.340047

>  <vsurf_CW6>
0.153771

>  <vsurf_CW7>
0.054496

>  <vsurf_CW8>
0.0264004

>  <vsurf_D1>
1021

>  <vsurf_D2>
608.25

>  <vsurf_D3>
460.625

>  <vsurf_D4>
391.125

>  <vsurf_D5>
337.25

>  <vsurf_D6>
258

>  <vsurf_D7>
150.625

>  <vsurf_D8>
86.75

>  <vsurf_DD12>
0.866025

>  <vsurf_DD13>
1.11803

>  <vsurf_DD23>
0.707107

>  <vsurf_DW12>
0.5

>  <vsurf_DW13>
0.5

>  <vsurf_DW23>
0.707107

>  <vsurf_EDmin1>
-2.82341

>  <vsurf_EDmin2>
-2.81131

>  <vsurf_EDmin3>
-2.80893

>  <vsurf_EWmin1>
-8.75153

>  <vsurf_EWmin2>
-8.64398

>  <vsurf_EWmin3>
-7.89769

>  <vsurf_G>
1.41701

>  <vsurf_HB1>
390.375

>  <vsurf_HB2>
433.375

>  <vsurf_HB3>
424.125

>  <vsurf_HB4>
178.125

>  <vsurf_HB5>
74.625

>  <vsurf_HB6>
30

>  <vsurf_HB7>
11.5

>  <vsurf_HB8>
4.625

>  <vsurf_HL1>
0.167436

>  <vsurf_HL2>
0.0776606

>  <vsurf_ID1>
0.933968

>  <vsurf_ID2>
0.908709

>  <vsurf_ID3>
1.05911

>  <vsurf_ID4>
1.20535

>  <vsurf_ID5>
1.36892

>  <vsurf_ID6>
1.28848

>  <vsurf_ID7>
0.643161

>  <vsurf_ID8>
0.923121

>  <vsurf_IW1>
0.181223

>  <vsurf_IW2>
0.891279

>  <vsurf_IW3>
1.38906

>  <vsurf_IW4>
1.76507

>  <vsurf_IW5>
2.01277

>  <vsurf_IW6>
2.46746

>  <vsurf_IW7>
3.16197

>  <vsurf_IW8>
3.45491

>  <vsurf_R>
1.43273

>  <vsurf_S>
660.542

>  <vsurf_V>
946.375

>  <vsurf_W1>
1600.38

>  <vsurf_W2>
950

>  <vsurf_W3>
515.25

>  <vsurf_W4>
187

>  <vsurf_W5>
77.125

>  <vsurf_W6>
30.375

>  <vsurf_W7>
11.5

>  <vsurf_W8>
4.625

>  <vsurf_Wp1>
1210

>  <vsurf_Wp2>
516.625

>  <vsurf_Wp3>
91.125

>  <vsurf_Wp4>
8.875

>  <vsurf_Wp5>
2.5

>  <vsurf_Wp6>
0.375

>  <vsurf_Wp7>
0

>  <vsurf_Wp8>
0

>  <dens>
1.08163

>  <glob>
0.0483696

>  <std_dim1>
5.3175

>  <std_dim2>
1.88529

>  <std_dim3>
1.16948

>  <vol>
410

>  <logP(o/w)>
0.99412

$$$$
D18.cdx
  MOE2008           3D

 61 65  0  0  0  0  0  0  0  0999 V2000
   -6.8940    1.0210   -0.9400 C   0  0  0  0  0  0  0  0  0  0  0  0
   -7.4990    1.8810   -1.2090 H   0  0  0  0  0  0  0  0  0  0  0  0
   -7.3880   -0.1800   -1.3000 N   0  0  0  0  0  0  0  0  0  0  0  0
   -6.6750   -1.3010   -0.9920 C   0  0  0  0  0  0  0  0  0  0  0  0
   -5.4670   -1.0970   -0.3200 C   0  0  0  0  0  0  0  0  0  0  0  0
   -5.0380    0.1800    0.0180 C   0  0  0  0  0  0  0  0  0  0  0  0
   -5.7520    1.2850   -0.2910 N   0  0  0  0  0  0  0  0  0  0  0  0
   -4.5070   -1.9750    0.1210 N   0  0  0  0  0  0  0  0  0  0  0  0
   -4.5720   -2.9800   -0.0040 H   0  0  0  0  0  0  0  0  0  0  0  0
   -3.4880   -1.2900    0.7280 C   0  0  0  0  0  0  0  0  0  0  0  0
   -2.6440   -1.8280    1.1420 H   0  0  0  0  0  0  0  0  0  0  0  0
   -3.7860    0.0630    0.6880 C   0  0  0  0  0  0  0  0  0  0  0  0
   -2.9560    1.1370    1.2150 C   0  0  0  0  0  0  0  0  0  0  0  0
   -1.5630    0.8240    1.7330 C   0  0  0  0  0  0  0  0  0  0  0  0
   -0.5040    1.1160    0.8780 N   0  0  0  0  0  0  0  0  0  0  0  0
    0.8670    0.8770    1.3280 C   0  0  0  0  0  0  0  0  0  0  0  0
    0.9140    0.9000    2.4220 H   0  0  0  0  0  0  0  0  0  0  0  0
    1.1310   -0.1380    1.0080 H   0  0  0  0  0  0  0  0  0  0  0  0
    1.8500    1.8910    0.7340 C   0  0  0  0  0  0  0  0  0  0  0  0
    2.8700    1.6530    1.0520 H   0  0  0  0  0  0  0  0  0  0  0  0
    1.6020    2.8940    1.0980 H   0  0  0  0  0  0  0  0  0  0  0  0
    1.7850    1.9400   -0.7350 N   0  0  0  0  0  0  0  0  0  0  0  0
    0.5520    1.4580   -1.3600 C   0  0  0  0  0  0  0  0  0  0  0  0
    0.4050    1.9470   -2.3300 H   0  0  0  0  0  0  0  0  0  0  0  0
    0.6950    0.3880   -1.5500 H   0  0  0  0  0  0  0  0  0  0  0  0
   -0.6750    1.6750   -0.4720 C   0  0  0  0  0  0  0  0  0  0  0  0
   -1.5580    1.2360   -0.9460 H   0  0  0  0  0  0  0  0  0  0  0  0
   -0.8620    2.7480   -0.3440 H   0  0  0  0  0  0  0  0  0  0  0  0
    2.8190    2.3800   -1.5610 C   0  0  0  0  0  0  0  0  0  0  0  0
    3.9990    3.0220   -0.9400 C   0  0  0  0  0  0  0  0  0  0  0  0
   -3.2960    2.3160    1.2400 O   0  0  0  0  0  0  0  0  0  0  0  0
   -1.4640    0.3360    2.8530 O   0  0  0  0  0  0  0  0  0  0  0  0
    2.8230    2.2620   -2.7830 O   0  0  0  0  0  0  0  0  0  0  0  0
    5.2630    2.4690   -1.1640 C   0  0  0  0  0  0  0  0  0  0  0  0
    5.3730    1.5730   -1.7700 H   0  0  0  0  0  0  0  0  0  0  0  0
    6.3890    3.0750   -0.6060 C   0  0  0  0  0  0  0  0  0  0  0  0
    7.3750    2.6490   -0.7710 H   0  0  0  0  0  0  0  0  0  0  0  0
    6.2500    4.2350    0.1600 C   0  0  0  0  0  0  0  0  0  0  0  0
    7.1290    4.7060    0.5920 H   0  0  0  0  0  0  0  0  0  0  0  0
    4.9880    4.7970    0.3620 C   0  0  0  0  0  0  0  0  0  0  0  0
    4.8870    5.7080    0.9470 H   0  0  0  0  0  0  0  0  0  0  0  0
    3.8590    4.1980   -0.1950 C   0  0  0  0  0  0  0  0  0  0  0  0
    2.8820    4.6530   -0.0550 H   0  0  0  0  0  0  0  0  0  0  0  0
   -7.1540   -2.5940   -1.3450 N   0  0  0  0  0  0  0  0  0  0  0  0
   -8.3170   -2.8680   -2.0200 C   0  0  0  0  0  0  0  0  0  0  0  0
   -8.9760   -2.0790   -2.3550 H   0  0  0  0  0  0  0  0  0  0  0  0
   -8.3850   -4.2320   -2.1400 C   0  0  0  0  0  0  0  0  0  0  0  0
   -9.1630   -4.8050   -2.6280 H   0  0  0  0  0  0  0  0  0  0  0  0
   -7.2300   -4.7340   -1.4830 C   0  0  0  0  0  0  0  0  0  0  0  0
   -6.4630   -3.7230   -1.0270 N   0  0  0  0  0  0  0  0  0  0  0  0
   -6.8690   -6.1630   -1.3850 C   0  0  0  0  0  0  0  0  0  0  0  0
   -6.0470   -6.5960   -0.3340 N   0  0  0  0  0  0  0  0  0  0  0  0
   -5.7070   -5.8060    0.8420 C   0  0  0  0  0  0  0  0  0  0  0  0
   -5.6000   -6.4690    1.7060 H   0  0  0  0  0  0  0  0  0  0  0  0
   -6.4880   -5.0800    1.0780 H   0  0  0  0  0  0  0  0  0  0  0  0
   -4.7560   -5.2990    0.6600 H   0  0  0  0  0  0  0  0  0  0  0  0
   -5.4840   -7.9350   -0.3870 C   0  0  0  0  0  0  0  0  0  0  0  0
   -4.4010   -7.8690   -0.2450 H   0  0  0  0  0  0  0  0  0  0  0  0
   -5.6810   -8.4290   -1.3420 H   0  0  0  0  0  0  0  0  0  0  0  0
   -5.9220   -8.5320    0.4180 H   0  0  0  0  0  0  0  0  0  0  0  0
   -7.3010   -6.9510   -2.2300 O   0  0  0  0  0  0  0  0  0  0  0  0
  1  2  1  0  0  0  0
  1  3  1  0  0  0  0
  1  7  2  0  0  0  0
  3  4  2  0  0  0  0
  4  5  1  0  0  0  0
  4 44  1  0  0  0  0
  5  6  2  0  0  0  0
  5  8  1  0  0  0  0
  6  7  1  0  0  0  0
  6 12  1  0  0  0  0
  8  9  1  0  0  0  0
  8 10  1  0  0  0  0
 10 11  1  0  0  0  0
 10 12  2  0  0  0  0
 12 13  1  0  0  0  0
 13 14  1  0  0  0  0
 13 31  2  0  0  0  0
 14 15  1  0  0  0  0
 14 32  2  0  0  0  0
 15 16  1  0  0  0  0
 15 26  1  0  0  0  0
 16 17  1  0  0  0  0
 16 18  1  0  0  0  0
 16 19  1  0  0  0  0
 19 20  1  0  0  0  0
 19 21  1  0  0  0  0
 19 22  1  0  0  0  0
 22 23  1  0  0  0  0
 22 29  1  0  0  0  0
 23 24  1  0  0  0  0
 23 25  1  0  0  0  0
 23 26  1  0  0  0  0
 26 27  1  0  0  0  0
 26 28  1  0  0  0  0
 29 30  1  0  0  0  0
 29 33  2  0  0  0  0
 30 34  1  0  0  0  0
 30 42  2  0  0  0  0
 34 35  1  0  0  0  0
 34 36  2  0  0  0  0
 36 37  1  0  0  0  0
 36 38  1  0  0  0  0
 38 39  1  0  0  0  0
 38 40  2  0  0  0  0
 40 41  1  0  0  0  0
 40 42  1  0  0  0  0
 42 43  1  0  0  0  0
 44 45  1  0  0  0  0
 44 50  1  0  0  0  0
 45 46  1  0  0  0  0
 45 47  2  0  0  0  0
 47 48  1  0  0  0  0
 47 49  1  0  0  0  0
 49 50  2  0  0  0  0
 49 51  1  0  0  0  0
 51 52  1  0  0  0  0
 51 61  2  0  0  0  0
 52 53  1  0  0  0  0
 52 57  1  0  0  0  0
 53 54  1  0  0  0  0
 53 55  1  0  0  0  0
 53 56  1  0  0  0  0
 57 58  1  0  0  0  0
 57 59  1  0  0  0  0
 57 60  1  0  0  0  0
M  END
>  <Activity>
8.6989

>  <AM1_dipole>
4.66135

>  <AM1_E>
-149038

>  <AM1_Eele>
-1.24088e+006

>  <AM1_HF>
89.8743

>  <AM1_HOMO>
-9.54707

>  <AM1_IP>
9.54707

>  <AM1_LUMO>
-1.33273

>  <diameter>
20

>  <petitjean>
0.5

>  <petitjeanSC>
1

>  <radius>
10

>  <VDistEq>
4.05451

>  <VDistMa>
10.0938

>  <weinerPath>
4920

>  <weinerPol>
63

>  <BCUT_PEOE_0>
-2.71185

>  <BCUT_PEOE_1>
-0.614461

>  <BCUT_PEOE_2>
0.573583

>  <BCUT_PEOE_3>
2.65035

>  <BCUT_SLOGP_0>
-2.86001

>  <BCUT_SLOGP_1>
-0.53808

>  <BCUT_SLOGP_2>
0.6639

>  <BCUT_SLOGP_3>
2.50303

>  <BCUT_SMR_0>
-2.43203

>  <BCUT_SMR_1>
-0.386403

>  <BCUT_SMR_2>
0.835074

>  <BCUT_SMR_3>
2.92016

>  <GCUT_PEOE_0>
-0.852392

>  <GCUT_PEOE_1>
-0.403764

>  <GCUT_PEOE_2>
0.0631071

>  <GCUT_PEOE_3>
2.70736

>  <GCUT_SLOGP_0>
-0.976521

>  <GCUT_SLOGP_1>
-0.349683

>  <GCUT_SLOGP_2>
0.137692

>  <GCUT_SLOGP_3>
2.67128

>  <GCUT_SMR_0>
-0.508915

>  <GCUT_SMR_1>
-0.206652

>  <GCUT_SMR_2>
0.216467

>  <GCUT_SMR_3>
2.97709

>  <a_aro>
20

>  <a_count>
61

>  <a_IC>
103.639

>  <a_ICM>
1.69901

>  <a_nH>
24

>  <b_1rotN>
8

>  <b_1rotR>
0.195122

>  <b_ar>
21

>  <b_count>
65

>  <b_double>
4

>  <b_rotN>
8

>  <b_rotR>
0.195122

>  <b_single>
40

>  <b_triple>
0

>  <chi0v>
20.2881

>  <chi0v_C>
15.0246

>  <chi1v>
11.6257

>  <chi1v_C>
5.57137

>  <chiral>
0

>  <chiral_u>
0

>  <nmol>
1

>  <reactive>
0

>  <rings>
5

>  <Weight>
500.519

>  <a_heavy>
37

>  <a_nB>
0

>  <a_nBr>
0

>  <a_nC>
25

>  <a_nCl>
0

>  <a_nF>
0

>  <a_nI>
0

>  <a_nN>
8

>  <a_nO>
4

>  <a_nP>
0

>  <a_nS>
0

>  <b_heavy>
41

>  <chi0>
26.1037

>  <chi0_C>
16.9659

>  <chi1>
17.8462

>  <chi1_C>
7.46633

>  <FCharge>
0

>  <VAdjEq>
0.327039

>  <VAdjMa>
6.35755

>  <zagreb>
200

>  <balabanJ>
1.1304

>  <PEOE_PC+>
3.56476

>  <PEOE_PC->
-3.56476

>  <PEOE_RPC+>
0.0827969

>  <PEOE_RPC->
0.0998214

>  <PEOE_VSA+0>
160.539

>  <PEOE_VSA+1>
70.4547

>  <PEOE_VSA+2>
45.601

>  <PEOE_VSA+3>
19.8096

>  <PEOE_VSA+4>
0

>  <PEOE_VSA+5>
47.3071

>  <PEOE_VSA+6>
0

>  <PEOE_VSA-0>
36.7647

>  <PEOE_VSA-1>
36.7647

>  <PEOE_VSA-2>
0

>  <PEOE_VSA-3>
9.42104

>  <PEOE_VSA-4>
11.3652

>  <PEOE_VSA-5>
54.2677

>  <PEOE_VSA-6>
0.136891

>  <PEOE_VSA_FHYD>
0.770371

>  <PEOE_VSA_FNEG>
0.302012

>  <PEOE_VSA_FPNEG>
0.133561

>  <PEOE_VSA_FPOL>
0.229629

>  <PEOE_VSA_FPOS>
0.697988

>  <PEOE_VSA_FPPOS>
0.0960683

>  <PEOE_VSA_HYD>
379.355

>  <PEOE_VSA_NEG>
148.72

>  <PEOE_VSA_PNEG>
65.7697

>  <PEOE_VSA_POL>
113.077

>  <PEOE_VSA_POS>
343.712

>  <PEOE_VSA_PPOS>
47.3071

>  <PC+>
7.894

>  <PC->
-7.895

>  <Q_PC+>
7.894

>  <Q_PC->
-7.895

>  <Q_RPC+>
0.0907018

>  <Q_RPC->
0.0895503

>  <Q_VSA_FHYD>
0.371395

>  <Q_VSA_FNEG>
0.387837

>  <Q_VSA_FPNEG>
0.220428

>  <Q_VSA_FPOL>
0.628605

>  <Q_VSA_FPOS>
0.612163

>  <Q_VSA_FPPOS>
0.408177

>  <Q_VSA_HYD>
182.887

>  <Q_VSA_NEG>
190.983

>  <Q_VSA_PNEG>
108.546

>  <Q_VSA_POL>
309.545

>  <Q_VSA_POS>
301.449

>  <Q_VSA_PPOS>
200.999

>  <RPC+>
0.0907018

>  <RPC->
0.0895503

>  <lip_acc>
12

>  <lip_don>
1

>  <lip_druglike>
0

>  <lip_violation>
2

>  <opr_brigid>
27

>  <opr_leadlike>
0

>  <opr_nring>
5

>  <opr_nrot>
7

>  <opr_violation>
3

>  <E>
115.491

>  <E_ang>
10.7553

>  <E_ele>
30.4968

>  <E_nb>
90.8501

>  <E_oop>
0.103949

>  <E_sol>
-25.4356

>  <E_stb>
1.44423

>  <E_str>
7.34213

>  <E_strain>
0.00714114

>  <E_tor>
4.99522

>  <E_vdw>
60.3533

>  <E_rele>
0

>  <E_rnb>
-5.68434e-014

>  <E_rsol>
-5.68434e-014

>  <E_rvdw>
0

>  <Kier1>
28.5259

>  <Kier2>
12.6688

>  <Kier3>
6.18917

>  <KierA1>
19.1658

>  <KierA2>
8.40976

>  <KierA3>
4.07281

>  <KierFlex>
4.35621

>  <logS>
-3.55948

>  <MNDO_dipole>
3.89262

>  <MNDO_E>
-149397

>  <MNDO_Eele>
-1.22912e+006

>  <MNDO_HF>
19.3735

>  <MNDO_HOMO>
-9.55648

>  <MNDO_IP>
9.55648

>  <MNDO_LUMO>
-1.25564

>  <apol>
72.011

>  <bpol>
41.289

>  <mr>
13.4318

>  <dipole>
1.07427

>  <dipoleX>
0.603577

>  <dipoleY>
-0.543635

>  <dipoleZ>
0.702995

>  <pmi>
16943.7

>  <pmiX>
10331.7

>  <pmiY>
5814.23

>  <pmiZ>
797.749

>  <rgyr>
5.81826

>  <a_acc>
7

>  <a_acid>
0

>  <a_base>
0

>  <a_don>
1

>  <a_hyd>
19

>  <vsa_acc>
75.0539

>  <vsa_acid>
0

>  <vsa_base>
0

>  <vsa_don>
5.68258

>  <vsa_hyd>
308.963

>  <vsa_other>
83.2882

>  <vsa_pol>
80.7365

>  <PM3_dipole>
3.68502

>  <PM3_E>
-133795

>  <PM3_Eele>
-1.20914e+006

>  <PM3_HF>
-2.03238

>  <PM3_HOMO>
-9.40783

>  <PM3_IP>
9.40783

>  <PM3_LUMO>
-1.51345

>  <SlogP>
1.0127

>  <SlogP_VSA0>
0

>  <SlogP_VSA1>
82.8475

>  <SlogP_VSA2>
40.6477

>  <SlogP_VSA3>
73.7583

>  <SlogP_VSA4>
80.7145

>  <SlogP_VSA5>
65.7944

>  <SlogP_VSA6>
0

>  <SlogP_VSA7>
163.69

>  <SlogP_VSA8>
0

>  <SlogP_VSA9>
0

>  <SMR>
13.2284

>  <SMR_VSA0>
95.4489

>  <SMR_VSA1>
61.3836

>  <SMR_VSA2>
16.7855

>  <SMR_VSA3>
9.1279

>  <SMR_VSA4>
6.61619

>  <SMR_VSA5>
157.073

>  <SMR_VSA6>
95.2223

>  <SMR_VSA7>
65.7944

>  <ASA>
792.966

>  <ASA+>
322.716

>  <ASA->
278.23

>  <ASA_H>
478.171

>  <ASA_P>
314.796

>  <CASA+>
2547.52

>  <CASA->
2196.63

>  <DASA>
44.486

>  <DCASA>
350.894

>  <FASA+>
0.406973

>  <FASA->
0.350873

>  <FASA_H>
0.603015

>  <FASA_P>
0.396985

>  <FCASA+>
3.21265

>  <FCASA->
2.77014

>  <VSA>
503.813

>  <TPSA>
137.39

>  <density>
0.782192

>  <vdw_area>
492.432

>  <vdw_vol>
639.893

>  <vsurf_A>
2.48269

>  <vsurf_CP>
0.0864032

>  <vsurf_CW1>
2.62697

>  <vsurf_CW2>
2.16281

>  <vsurf_CW3>
1.5153

>  <vsurf_CW4>
0.684029

>  <vsurf_CW5>
0.319828

>  <vsurf_CW6>
0.132732

>  <vsurf_CW7>
0.0348292

>  <vsurf_CW8>
0.0167666

>  <vsurf_D1>
1108.63

>  <vsurf_D2>
666.625

>  <vsurf_D3>
499.625

>  <vsurf_D4>
412.75

>  <vsurf_D5>
344.875

>  <vsurf_D6>
268.75

>  <vsurf_D7>
163.5

>  <vsurf_D8>
102.5

>  <vsurf_DD12>
6.74537

>  <vsurf_DD13>
6.72681

>  <vsurf_DD23>
0.5

>  <vsurf_DW12>
1.11803

>  <vsurf_DW13>
0.5

>  <vsurf_DW23>
0.707107

>  <vsurf_EDmin1>
-2.91654

>  <vsurf_EDmin2>
-2.86294

>  <vsurf_EDmin3>
-2.85645

>  <vsurf_EWmin1>
-8.70515

>  <vsurf_EWmin2>
-8.40536

>  <vsurf_EWmin3>
-8.402

>  <vsurf_G>
1.44419

>  <vsurf_HB1>
479.625

>  <vsurf_HB2>
566.875

>  <vsurf_HB3>
497.375

>  <vsurf_HB4>
200.75

>  <vsurf_HB5>
79.125

>  <vsurf_HB6>
27.875

>  <vsurf_HB7>
8.375

>  <vsurf_HB8>
3.625

>  <vsurf_HL1>
0.15937

>  <vsurf_HL2>
0.0675348

>  <vsurf_ID1>
0.782645

>  <vsurf_ID2>
0.609656

>  <vsurf_ID3>
0.752002

>  <vsurf_ID4>
1.05504

>  <vsurf_ID5>
1.46301

>  <vsurf_ID6>
1.69472

>  <vsurf_ID7>
0.360463

>  <vsurf_ID8>
0.479174

>  <vsurf_IW1>
0.205352

>  <vsurf_IW2>
0.910124

>  <vsurf_IW3>
1.22127

>  <vsurf_IW4>
1.37358

>  <vsurf_IW5>
1.79755

>  <vsurf_IW6>
2.6503

>  <vsurf_IW7>
4.42439

>  <vsurf_IW8>
5.03765

>  <vsurf_R>
1.45456

>  <vsurf_S>
720.753

>  <vsurf_V>
1048.38

>  <vsurf_W1>
1788.25

>  <vsurf_W2>
1103.63

>  <vsurf_W3>
592.75

>  <vsurf_W4>
205.25

>  <vsurf_W5>
79.625

>  <vsurf_W6>
27.875

>  <vsurf_W7>
8.375

>  <vsurf_W8>
3.625

>  <vsurf_Wp1>
1308.63

>  <vsurf_Wp2>
536.75

>  <vsurf_Wp3>
95.375

>  <vsurf_Wp4>
4.5

>  <vsurf_Wp5>
0.5

>  <vsurf_Wp6>
0

>  <vsurf_Wp7>
0

>  <vsurf_Wp8>
0

>  <dens>
1.09016

>  <glob>
0.048202

>  <std_dim1>
5.67021

>  <std_dim2>
2.05787

>  <std_dim3>
1.24489

>  <vol>
459.125

>  <logP(o/w)>
0.19212

$$$$
D18.cdx
  MOE2008           3D

 64 68  0  0  1  0  0  0  0  0999 V2000
   -6.0890   -4.6180    0.7160 C   0  0  0  0  0  0  0  0  0  0  0  0
   -6.9140   -3.9680    0.9910 H   0  0  0  0  0  0  0  0  0  0  0  0
   -6.2020   -5.9050    1.1000 N   0  0  0  0  0  0  0  0  0  0  0  0
   -5.1950   -6.7720    0.7860 C   0  0  0  0  0  0  0  0  0  0  0  0
   -4.1170   -6.2340    0.0770 C   0  0  0  0  0  0  0  0  0  0  0  0
   -4.0880   -4.8930   -0.2810 C   0  0  0  0  0  0  0  0  0  0  0  0
   -5.0870   -4.0410    0.0390 N   0  0  0  0  0  0  0  0  0  0  0  0
   -2.9570   -6.8020   -0.3890 N   0  0  0  0  0  0  0  0  0  0  0  0
   -2.7230   -7.7810   -0.2600 H   0  0  0  0  0  0  0  0  0  0  0  0
   -2.1990   -5.8600   -1.0320 C   0  0  0  0  0  0  0  0  0  0  0  0
   -1.2470   -6.1370   -1.4690 H   0  0  0  0  0  0  0  0  0  0  0  0
   -2.8750   -4.6500   -0.9890 C   0  0  0  0  0  0  0  0  0  0  0  0
   -2.4050   -3.3940   -1.5560 C   0  0  0  0  0  0  0  0  0  0  0  0
   -1.0230   -3.3330   -2.1820 C   0  0  0  0  0  0  0  0  0  0  0  0
    0.0220   -2.9470   -1.3460 N   0  0  0  0  0  0  0  0  0  0  0  0
    1.3920   -2.9710   -1.8580 C   0  0  0  0  0  0  0  0  0  0  0  0
    1.4700   -3.6690   -2.6980 H   0  0  0  0  0  0  0  0  0  0  0  0
    1.6050   -1.9660   -2.2420 H   0  0  0  0  0  0  0  0  0  0  0  0
    2.3990   -3.3450   -0.7660 C   0  0  0  0  0  0  0  0  0  0  0  0
    3.4160   -3.3110   -1.1680 H   0  0  0  0  0  0  0  0  0  0  0  0
    2.1990   -4.3660   -0.4200 H   0  0  0  0  0  0  0  0  0  0  0  0
    2.3020   -2.4680    0.4120 N   0  0  0  0  0  0  0  0  0  0  0  0
    1.0420   -1.7430    0.5940 C   0  0  0  0  0  0  0  0  0  0  0  0
    0.8890   -1.5120    1.6540 H   0  0  0  0  0  0  0  0  0  0  0  0
    1.1520   -0.7890    0.0630 H   0  0  0  0  0  0  0  0  0  0  0  0
   -0.1640   -2.5110    0.0450 C   0  0  0  0  0  0  0  0  0  0  0  0
   -1.0640   -1.8940    0.1210 H   0  0  0  0  0  0  0  0  0  0  0  0
   -0.3280   -3.4190    0.6370 H   0  0  0  0  0  0  0  0  0  0  0  0
    3.3270   -2.2600    1.3340 C   0  0  0  0  0  0  0  0  0  0  0  0
    4.5510   -3.0860    1.2360 C   0  0  0  0  0  0  0  0  0  0  0  0
   -3.0560   -2.3530   -1.5500 O   0  0  0  0  0  0  0  0  0  0  0  0
   -0.9150   -3.6630   -3.3570 O   0  0  0  0  0  0  0  0  0  0  0  0
    3.2900   -1.4200    2.2280 O   0  0  0  0  0  0  0  0  0  0  0  0
    4.4870   -4.4750    1.3890 C   0  0  0  0  0  0  0  0  0  0  0  0
    3.5370   -4.9700    1.5750 H   0  0  0  0  0  0  0  0  0  0  0  0
    5.6580   -5.2290    1.3170 C   0  0  0  0  0  0  0  0  0  0  0  0
    5.6190   -6.3100    1.4320 H   0  0  0  0  0  0  0  0  0  0  0  0
    6.8850   -4.5960    1.1090 C   0  0  0  0  0  0  0  0  0  0  0  0
    7.7970   -5.1860    1.0580 H   0  0  0  0  0  0  0  0  0  0  0  0
    6.9480   -3.2070    0.9810 C   0  0  0  0  0  0  0  0  0  0  0  0
    7.9070   -2.7190    0.8320 H   0  0  0  0  0  0  0  0  0  0  0  0
    5.7810   -2.4470    1.0500 C   0  0  0  0  0  0  0  0  0  0  0  0
    5.8310   -1.3650    0.9620 H   0  0  0  0  0  0  0  0  0  0  0  0
   -5.2520   -8.1420    1.1700 N   0  0  0  0  0  0  0  0  0  0  0  0
   -6.2640   -8.7510    1.8690 C   0  0  0  0  0  0  0  0  0  0  0  0
   -7.1380   -8.2010    2.1910 H   0  0  0  0  0  0  0  0  0  0  0  0
   -5.9000  -10.0650    2.0220 C   0  0  0  0  0  0  0  0  0  0  0  0
   -6.4590  -10.8430    2.5260 H   0  0  0  0  0  0  0  0  0  0  0  0
   -4.6420  -10.1850    1.3800 C   0  0  0  0  0  0  0  0  0  0  0  0
   -4.2470   -9.0100    0.8590 N   0  0  0  0  0  0  0  0  0  0  0  0
   -3.8320  -11.4060    1.2660 C   0  0  0  0  0  0  0  0  0  0  0  0
   -2.5230  -11.3110    0.4980 C   0  0  0  0  0  0  0  0  0  0  0  0
   -2.7550  -11.0460   -0.5410 H   0  0  0  0  0  0  0  0  0  0  0  0
   -1.9170  -10.5100    0.9380 H   0  0  0  0  0  0  0  0  0  0  0  0
   -4.2130  -12.4640    1.7650 O   0  0  0  0  0  0  0  0  0  0  0  0
   -1.7440  -12.6250    0.5430 C   0  0  0  0  0  0  0  0  0  0  0  0
   -2.3540  -13.4360    0.1270 H   0  0  0  0  0  0  0  0  0  0  0  0
   -1.5200  -12.8770    1.5860 H   0  0  0  0  0  0  0  0  0  0  0  0
   -0.4990  -12.4880   -0.2210 N   0  0  3  0  0  0  0  0  0  0  0  0
   -0.7230  -12.3000   -1.1990 H   0  0  0  0  0  0  0  0  0  0  0  0
    0.2900  -13.7120   -0.1470 C   0  0  0  0  0  0  0  0  0  0  0  0
    0.5760  -13.9370    0.8860 H   0  0  0  0  0  0  0  0  0  0  0  0
    1.2120  -13.5860   -0.7230 H   0  0  0  0  0  0  0  0  0  0  0  0
   -0.2530  -14.5660   -0.5640 H   0  0  0  0  0  0  0  0  0  0  0  0
  1  2  1  0  0  0  0
  1  3  1  0  0  0  0
  1  7  2  0  0  0  0
  3  4  2  0  0  0  0
  4  5  1  0  0  0  0
  4 44  1  0  0  0  0
  5  6  2  0  0  0  0
  5  8  1  0  0  0  0
  6  7  1  0  0  0  0
  6 12  1  0  0  0  0
  8  9  1  0  0  0  0
  8 10  1  0  0  0  0
 10 11  1  0  0  0  0
 10 12  2  0  0  0  0
 12 13  1  0  0  0  0
 13 14  1  0  0  0  0
 13 31  2  0  0  0  0
 14 15  1  0  0  0  0
 14 32  2  0  0  0  0
 15 16  1  0  0  0  0
 15 26  1  0  0  0  0
 16 17  1  0  0  0  0
 16 18  1  0  0  0  0
 16 19  1  0  0  0  0
 19 20  1  0  0  0  0
 19 21  1  0  0  0  0
 19 22  1  0  0  0  0
 22 23  1  0  0  0  0
 22 29  1  0  0  0  0
 23 24  1  0  0  0  0
 23 25  1  0  0  0  0
 23 26  1  0  0  0  0
 26 27  1  0  0  0  0
 26 28  1  0  0  0  0
 29 30  1  0  0  0  0
 29 33  2  0  0  0  0
 30 34  1  0  0  0  0
 30 42  2  0  0  0  0
 34 35  1  0  0  0  0
 34 36  2  0  0  0  0
 36 37  1  0  0  0  0
 36 38  1  0  0  0  0
 38 39  1  0  0  0  0
 38 40  2  0  0  0  0
 40 41  1  0  0  0  0
 40 42  1  0  0  0  0
 42 43  1  0  0  0  0
 44 45  1  0  0  0  0
 44 50  1  0  0  0  0
 45 46  1  0  0  0  0
 45 47  2  0  0  0  0
 47 48  1  0  0  0  0
 47 49  1  0  0  0  0
 49 50  2  0  0  0  0
 49 51  1  0  0  0  0
 51 52  1  0  0  0  0
 51 55  2  0  0  0  0
 52 53  1  0  0  0  0
 52 54  1  0  0  0  0
 52 56  1  0  0  0  0
 56 57  1  0  0  0  0
 56 58  1  0  0  0  0
 56 59  1  0  0  0  0
 59 60  1  0  0  0  0
 59 61  1  0  0  0  0
 61 62  1  0  0  0  0
 61 63  1  0  0  0  0
 61 64  1  0  0  0  0
M  END
>  <Activity>
8.3187

>  <AM1_dipole>
4.78515

>  <AM1_E>
-152636

>  <AM1_Eele>
-1.29706e+006

>  <AM1_HF>
74.2332

>  <AM1_HOMO>
-9.56156

>  <AM1_IP>
9.56156

>  <AM1_LUMO>
-1.35506

>  <diameter>
22

>  <petitjean>
0.5

>  <petitjeanSC>
1

>  <radius>
11

>  <VDistEq>
4.12426

>  <VDistMa>
10.1683

>  <weinerPath>
5394

>  <weinerPol>
63

>  <BCUT_PEOE_0>
-2.71185

>  <BCUT_PEOE_1>
-0.646136

>  <BCUT_PEOE_2>
0.679055

>  <BCUT_PEOE_3>
2.65035

>  <BCUT_SLOGP_0>
-2.86001

>  <BCUT_SLOGP_1>
-0.53808

>  <BCUT_SLOGP_2>
0.69347

>  <BCUT_SLOGP_3>
2.50303

>  <BCUT_SMR_0>
-2.43203

>  <BCUT_SMR_1>
-0.463538

>  <BCUT_SMR_2>
0.821632

>  <BCUT_SMR_3>
2.92016

>  <GCUT_PEOE_0>
-0.852141

>  <GCUT_PEOE_1>
-0.403785

>  <GCUT_PEOE_2>
0.080099

>  <GCUT_PEOE_3>
2.71657

>  <GCUT_SLOGP_0>
-1.15248

>  <GCUT_SLOGP_1>
-0.351482

>  <GCUT_SLOGP_2>
0.164454

>  <GCUT_SLOGP_3>
2.68383

>  <GCUT_SMR_0>
-0.509058

>  <GCUT_SMR_1>
-0.216057

>  <GCUT_SMR_2>
0.215727

>  <GCUT_SMR_3>
2.98576

>  <a_aro>
20

>  <a_count>
64

>  <a_IC>
107.577

>  <a_ICM>
1.68089

>  <a_nH>
26

>  <b_1rotN>
10

>  <b_1rotR>
0.238095

>  <b_ar>
21

>  <b_count>
68

>  <b_double>
4

>  <b_rotN>
10

>  <b_rotR>
0.238095

>  <b_single>
43

>  <b_triple>
0

>  <chi0v>
20.7551

>  <chi0v_C>
15.4388

>  <chi1v>
12.2148

>  <chi1v_C>
6.42492

>  <chiral>
0

>  <chiral_u>
0

>  <nmol>
1

>  <reactive>
0

>  <rings>
5

>  <Weight>
514.546

>  <a_heavy>
38

>  <a_nB>
0

>  <a_nBr>
0

>  <a_nC>
26

>  <a_nCl>
0

>  <a_nF>
0

>  <a_nI>
0

>  <a_nN>
8

>  <a_nO>
4

>  <a_nP>
0

>  <a_nS>
0

>  <b_heavy>
42

>  <chi0>
26.6477

>  <chi0_C>
17.3801

>  <chi1>
18.4736

>  <chi1_C>
8.37457

>  <FCharge>
0

>  <VAdjEq>
0.320144

>  <VAdjMa>
6.39232

>  <zagreb>
202

>  <balabanJ>
1.11518

>  <PEOE_PC+>
3.5846

>  <PEOE_PC->
-3.5846

>  <PEOE_RPC+>
0.0823388

>  <PEOE_RPC->
0.099269

>  <PEOE_VSA+0>
140.221

>  <PEOE_VSA+1>
70.4547

>  <PEOE_VSA+2>
54.22

>  <PEOE_VSA+3>
28.2681

>  <PEOE_VSA+4>
0

>  <PEOE_VSA+5>
34.3576

>  <PEOE_VSA+6>
0

>  <PEOE_VSA-0>
60.0034

>  <PEOE_VSA-1>
36.7647

>  <PEOE_VSA-2>
0

>  <PEOE_VSA-3>
9.42104

>  <PEOE_VSA-4>
11.3652

>  <PEOE_VSA-5>
54.2677

>  <PEOE_VSA-6>
0.273782

>  <PEOE_VSA_FHYD>
0.799318

>  <PEOE_VSA_FNEG>
0.344455

>  <PEOE_VSA_FPNEG>
0.131914

>  <PEOE_VSA_FPOL>
0.200682

>  <PEOE_VSA_FPOS>
0.655545

>  <PEOE_VSA_FPPOS>
0.0687678

>  <PEOE_VSA_HYD>
399.353

>  <PEOE_VSA_NEG>
172.096

>  <PEOE_VSA_PNEG>
65.9066

>  <PEOE_VSA_POL>
100.264

>  <PEOE_VSA_POS>
327.521

>  <PEOE_VSA_PPOS>
34.3576

>  <PC+>
8.134

>  <PC->
-8.135

>  <Q_PC+>
8.134

>  <Q_PC->
-8.135

>  <Q_RPC+>
0.0806491

>  <Q_RPC->
0.110633

>  <Q_VSA_FHYD>
0.392007

>  <Q_VSA_FNEG>
0.382533

>  <Q_VSA_FPNEG>
0.217532

>  <Q_VSA_FPOL>
0.607993

>  <Q_VSA_FPOS>
0.617467

>  <Q_VSA_FPPOS>
0.390461

>  <Q_VSA_HYD>
195.854

>  <Q_VSA_NEG>
191.12

>  <Q_VSA_PNEG>
108.683

>  <Q_VSA_POL>
303.764

>  <Q_VSA_POS>
308.497

>  <Q_VSA_PPOS>
195.081

>  <RPC+>
0.0806491

>  <RPC->
0.110633

>  <lip_acc>
12

>  <lip_don>
2

>  <lip_druglike>
0

>  <lip_violation>
2

>  <opr_brigid>
27

>  <opr_leadlike>
0

>  <opr_nring>
5

>  <opr_nrot>
10

>  <opr_violation>
3

>  <E>
105.259

>  <E_ang>
8.09616

>  <E_ele>
32.7801

>  <E_nb>
90.3645

>  <E_oop>
0.0841405

>  <E_sol>
-32.7296

>  <E_stb>
1.17011

>  <E_str>
6.93023

>  <E_strain>
0.00616369

>  <E_tor>
-1.38573

>  <E_vdw>
57.5844

>  <E_rele>
0

>  <E_rnb>
-1.42109e-014

>  <E_rsol>
-1.42109e-014

>  <E_rvdw>
0

>  <Kier1>
29.4909

>  <Kier2>
13.7754

>  <Kier3>
6.74598

>  <KierA1>
20.3539

>  <KierA2>
9.40446

>  <KierA3>
4.57053

>  <KierFlex>
5.03731

>  <logS>
-3.47311

>  <MNDO_dipole>
6.89023

>  <MNDO_E>
-153005

>  <MNDO_Eele>
-1.28749e+006

>  <MNDO_HF>
13.9634

>  <MNDO_HOMO>
-9.54673

>  <MNDO_IP>
9.54673

>  <MNDO_LUMO>
-1.22564

>  <apol>
75.1046

>  <bpol>
42.1554

>  <mr>
13.9368

>  <dipole>
1.46605

>  <dipoleX>
0.625062

>  <dipoleY>
-1.31885

>  <dipoleZ>
-0.13864

>  <pmi>
15479.1

>  <pmiX>
7788.54

>  <pmiY>
6809.8

>  <pmiZ>
880.74

>  <rgyr>
5.4848

>  <a_acc>
8

>  <a_acid>
0

>  <a_base>
0

>  <a_don>
2

>  <a_hyd>
20

>  <vsa_acc>
75.0539

>  <vsa_acid>
0

>  <vsa_base>
0

>  <vsa_don>
5.68258

>  <vsa_hyd>
311.171

>  <vsa_other>
78.7972

>  <vsa_pol>
86.419

>  <PM3_dipole>
4.67608

>  <PM3_E>
-137239

>  <PM3_Eele>
-1.27695e+006

>  <PM3_HF>
-3.00647

>  <PM3_HOMO>
-9.46344

>  <PM3_IP>
9.46344

>  <PM3_LUMO>
-1.60216

>  <SlogP>
1.1031

>  <SlogP_VSA0>
18.0107

>  <SlogP_VSA1>
80.1521

>  <SlogP_VSA2>
40.6477

>  <SlogP_VSA3>
92.1979

>  <SlogP_VSA4>
80.7145

>  <SlogP_VSA5>
32.8972

>  <SlogP_VSA6>
0

>  <SlogP_VSA7>
163.69

>  <SlogP_VSA8>
18.8684

>  <SlogP_VSA9>
0

>  <SMR>
13.7141

>  <SMR_VSA0>
95.4489

>  <SMR_VSA1>
58.2593

>  <SMR_VSA2>
34.7963

>  <SMR_VSA3>
9.1279

>  <SMR_VSA4>
6.61619

>  <SMR_VSA5>
175.942

>  <SMR_VSA6>
114.091

>  <SMR_VSA7>
32.8972

>  <ASA>
832.8

>  <ASA+>
332.352

>  <ASA->
286.268

>  <ASA_H>
500.275

>  <ASA_P>
332.525

>  <CASA+>
2703.35

>  <CASA->
2328.79

>  <DASA>
46.0843

>  <DCASA>
374.564

>  <FASA+>
0.399078

>  <FASA->
0.343742

>  <FASA_H>
0.600714

>  <FASA_P>
0.399286

>  <FCASA+>
3.2461

>  <FCASA->
2.79634

>  <VSA>
524.251

>  <TPSA>
146.18

>  <density>
0.776432

>  <vdw_area>
499.617

>  <vdw_vol>
662.706

>  <vsurf_A>
2.94229

>  <vsurf_CP>
0.0735221

>  <vsurf_CW1>
2.60236

>  <vsurf_CW2>
2.15437

>  <vsurf_CW3>
1.60419

>  <vsurf_CW4>
0.767018

>  <vsurf_CW5>
0.392084

>  <vsurf_CW6>
0.161869

>  <vsurf_CW7>
0.0456942

>  <vsurf_CW8>
0.0165221

>  <vsurf_D1>
1064.5

>  <vsurf_D2>
650.875

>  <vsurf_D3>
493.5

>  <vsurf_D4>
411.25

>  <vsurf_D5>
339.875

>  <vsurf_D6>
246.375

>  <vsurf_D7>
158.125

>  <vsurf_D8>
98

>  <vsurf_DD12>
3.08221

>  <vsurf_DD13>
4.30116

>  <vsurf_DD23>
1.58114

>  <vsurf_DW12>
0.707107

>  <vsurf_DW13>
0.866025

>  <vsurf_DW23>
0.5

>  <vsurf_EDmin1>
-2.88676

>  <vsurf_EDmin2>
-2.87447

>  <vsurf_EDmin3>
-2.84534

>  <vsurf_EWmin1>
-8.2764

>  <vsurf_EWmin2>
-8.00255

>  <vsurf_EWmin3>
-7.89343

>  <vsurf_G>
1.48377

>  <vsurf_HB1>
509.25

>  <vsurf_HB2>
641.75

>  <vsurf_HB3>
546.625

>  <vsurf_HB4>
226.125

>  <vsurf_HB5>
93.875

>  <vsurf_HB6>
35.375

>  <vsurf_HB7>
9.625

>  <vsurf_HB8>
4

>  <vsurf_HL1>
0.2077

>  <vsurf_HL2>
0.0905775

>  <vsurf_ID1>
1.13827

>  <vsurf_ID2>
1.08902

>  <vsurf_ID3>
1.32645

>  <vsurf_ID4>
1.69218

>  <vsurf_ID5>
1.97294

>  <vsurf_ID6>
1.9208

>  <vsurf_ID7>
0.818772

>  <vsurf_ID8>
0.378162

>  <vsurf_IW1>
0.206851

>  <vsurf_IW2>
0.773833

>  <vsurf_IW3>
1.21115

>  <vsurf_IW4>
1.47364

>  <vsurf_IW5>
1.6352

>  <vsurf_IW6>
2.08797

>  <vsurf_IW7>
3.00968

>  <vsurf_IW8>
5.84753

>  <vsurf_R>
1.43562

>  <vsurf_S>
761.429

>  <vsurf_V>
1093.13

>  <vsurf_W1>
1903.5

>  <vsurf_W2>
1236.5

>  <vsurf_W3>
686.625

>  <vsurf_W4>
250.5

>  <vsurf_W5>
102.5

>  <vsurf_W6>
37.25

>  <vsurf_W7>
9.625

>  <vsurf_W8>
4

>  <vsurf_Wp1>
1394.25

>  <vsurf_Wp2>
594.75

>  <vsurf_Wp3>
140

>  <vsurf_Wp4>
24.375

>  <vsurf_Wp5>
8.625

>  <vsurf_Wp6>
1.875

>  <vsurf_Wp7>
0

>  <vsurf_Wp8>
0

>  <dens>
1.08554

>  <glob>
0.0712251

>  <std_dim1>
4.70735

>  <std_dim2>
3.10782

>  <std_dim3>
1.2563

>  <vol>
474

>  <logP(o/w)>
0.12012

$$$$
D18.cdx
  MOE2008           3D

 61 66  0  0  0  0  0  0  0  0999 V2000
   -5.2770  -11.8790    0.4880 C   0  0  0  0  0  0  0  0  0  0  0  0
   -6.0110  -11.0950    0.6460 H   0  0  0  0  0  0  0  0  0  0  0  0
   -5.6380  -13.1130    0.8940 N   0  0  0  0  0  0  0  0  0  0  0  0
   -4.7550  -14.1380    0.7250 C   0  0  0  0  0  0  0  0  0  0  0  0
   -3.5350  -13.8120    0.1280 C   0  0  0  0  0  0  0  0  0  0  0  0
   -3.2500  -12.5120   -0.2640 C   0  0  0  0  0  0  0  0  0  0  0  0
   -4.1280  -11.5000   -0.0870 N   0  0  0  0  0  0  0  0  0  0  0  0
   -2.4420  -14.5810   -0.1910 N   0  0  0  0  0  0  0  0  0  0  0  0
   -2.3960  -15.5800   -0.0140 H   0  0  0  0  0  0  0  0  0  0  0  0
   -1.4720  -13.8010   -0.7610 C   0  0  0  0  0  0  0  0  0  0  0  0
   -0.5350  -14.2440   -1.0750 H   0  0  0  0  0  0  0  0  0  0  0  0
   -1.9420  -12.4980   -0.8270 C   0  0  0  0  0  0  0  0  0  0  0  0
   -1.2110  -11.3580   -1.3570 C   0  0  0  0  0  0  0  0  0  0  0  0
    0.2290  -11.5340   -1.7950 C   0  0  0  0  0  0  0  0  0  0  0  0
    1.2110  -11.2550   -0.8480 N   0  0  0  0  0  0  0  0  0  0  0  0
    2.6220  -11.4280   -1.1920 C   0  0  0  0  0  0  0  0  0  0  0  0
    2.9900  -12.2720   -0.5960 H   0  0  0  0  0  0  0  0  0  0  0  0
    2.7410  -11.6920   -2.2480 H   0  0  0  0  0  0  0  0  0  0  0  0
    3.4390  -10.1670   -0.8720 C   0  0  0  0  0  0  0  0  0  0  0  0
    3.1540   -9.3520   -1.5470 H   0  0  0  0  0  0  0  0  0  0  0  0
    4.4970  -10.3870   -1.0290 H   0  0  0  0  0  0  0  0  0  0  0  0
    3.1750   -9.6980    0.4990 N   0  0  0  0  0  0  0  0  0  0  0  0
    1.7570   -9.5250    0.8310 C   0  0  0  0  0  0  0  0  0  0  0  0
    1.6260   -9.2440    1.8810 H   0  0  0  0  0  0  0  0  0  0  0  0
    1.3890   -8.6930    0.2180 H   0  0  0  0  0  0  0  0  0  0  0  0
    0.9560  -10.7940    0.5250 C   0  0  0  0  0  0  0  0  0  0  0  0
   -0.1050  -10.6100    0.7030 H   0  0  0  0  0  0  0  0  0  0  0  0
    1.2690  -11.6070    1.1920 H   0  0  0  0  0  0  0  0  0  0  0  0
    4.1370   -9.4240    1.4670 C   0  0  0  0  0  0  0  0  0  0  0  0
    5.5630   -9.4130    1.0730 C   0  0  0  0  0  0  0  0  0  0  0  0
   -1.6780  -10.2270   -1.4540 O   0  0  0  0  0  0  0  0  0  0  0  0
    0.4310  -11.9210   -2.9400 O   0  0  0  0  0  0  0  0  0  0  0  0
    3.8880   -9.1860    2.6450 O   0  0  0  0  0  0  0  0  0  0  0  0
    6.4430  -10.3010    1.6970 C   0  0  0  0  0  0  0  0  0  0  0  0
    6.0780  -11.0030    2.4430 H   0  0  0  0  0  0  0  0  0  0  0  0
    7.7950  -10.2800    1.3570 C   0  0  0  0  0  0  0  0  0  0  0  0
    8.4870  -10.9700    1.8340 H   0  0  0  0  0  0  0  0  0  0  0  0
    8.2630   -9.3680    0.4090 C   0  0  0  0  0  0  0  0  0  0  0  0
    9.3190   -9.3520    0.1480 H   0  0  0  0  0  0  0  0  0  0  0  0
    7.3840   -8.4670   -0.1970 C   0  0  0  0  0  0  0  0  0  0  0  0
    7.7570   -7.7510   -0.9250 H   0  0  0  0  0  0  0  0  0  0  0  0
    6.0300   -8.4810    0.1390 C   0  0  0  0  0  0  0  0  0  0  0  0
    5.3500   -7.7680   -0.3200 H   0  0  0  0  0  0  0  0  0  0  0  0
   -5.0700  -15.4600    1.1380 N   0  0  0  0  0  0  0  0  0  0  0  0
   -6.2460  -15.8780    1.7070 C   0  0  0  0  0  0  0  0  0  0  0  0
   -7.0590  -15.1910    1.8970 H   0  0  0  0  0  0  0  0  0  0  0  0
   -6.1110  -17.2270    1.9250 C   0  0  0  0  0  0  0  0  0  0  0  0
   -6.8540  -17.8780    2.3650 H   0  0  0  0  0  0  0  0  0  0  0  0
   -4.8080  -17.5630    1.4650 C   0  0  0  0  0  0  0  0  0  0  0  0
   -4.1760  -16.4740    0.9960 N   0  0  0  0  0  0  0  0  0  0  0  0
   -4.1650  -18.8800    1.4680 C   0  0  0  0  0  0  0  0  0  0  0  0
   -4.9280  -20.0560    1.5100 C   0  0  0  0  0  0  0  0  0  0  0  0
   -6.0140  -20.0200    1.5290 H   0  0  0  0  0  0  0  0  0  0  0  0
   -4.3060  -21.3070    1.5110 C   0  0  0  0  0  0  0  0  0  0  0  0
   -4.9090  -22.2110    1.5390 H   0  0  0  0  0  0  0  0  0  0  0  0
   -2.9160  -21.3990    1.4710 C   0  0  0  0  0  0  0  0  0  0  0  0
   -2.4340  -22.3730    1.4720 H   0  0  0  0  0  0  0  0  0  0  0  0
   -2.1450  -20.2400    1.4290 C   0  0  0  0  0  0  0  0  0  0  0  0
   -1.0610  -20.3080    1.3990 H   0  0  0  0  0  0  0  0  0  0  0  0
   -2.7660  -18.9880    1.4270 C   0  0  0  0  0  0  0  0  0  0  0  0
   -2.1450  -18.0950    1.3990 H   0  0  0  0  0  0  0  0  0  0  0  0
  1  2  1  0  0  0  0
  1  3  1  0  0  0  0
  1  7  2  0  0  0  0
  3  4  2  0  0  0  0
  4  5  1  0  0  0  0
  4 44  1  0  0  0  0
  5  6  2  0  0  0  0
  5  8  1  0  0  0  0
  6  7  1  0  0  0  0
  6 12  1  0  0  0  0
  8  9  1  0  0  0  0
  8 10  1  0  0  0  0
 10 11  1  0  0  0  0
 10 12  2  0  0  0  0
 12 13  1  0  0  0  0
 13 14  1  0  0  0  0
 13 31  2  0  0  0  0
 14 15  1  0  0  0  0
 14 32  2  0  0  0  0
 15 16  1  0  0  0  0
 15 26  1  0  0  0  0
 16 17  1  0  0  0  0
 16 18  1  0  0  0  0
 16 19  1  0  0  0  0
 19 20  1  0  0  0  0
 19 21  1  0  0  0  0
 19 22  1  0  0  0  0
 22 23  1  0  0  0  0
 22 29  1  0  0  0  0
 23 24  1  0  0  0  0
 23 25  1  0  0  0  0
 23 26  1  0  0  0  0
 26 27  1  0  0  0  0
 26 28  1  0  0  0  0
 29 30  1  0  0  0  0
 29 33  2  0  0  0  0
 30 34  1  0  0  0  0
 30 42  2  0  0  0  0
 34 35  1  0  0  0  0
 34 36  2  0  0  0  0
 36 37  1  0  0  0  0
 36 38  1  0  0  0  0
 38 39  1  0  0  0  0
 38 40  2  0  0  0  0
 40 41  1  0  0  0  0
 40 42  1  0  0  0  0
 42 43  1  0  0  0  0
 44 45  1  0  0  0  0
 44 50  1  0  0  0  0
 45 46  1  0  0  0  0
 45 47  2  0  0  0  0
 47 48  1  0  0  0  0
 47 49  1  0  0  0  0
 49 50  2  0  0  0  0
 49 51  1  0  0  0  0
 51 52  1  0  0  0  0
 51 60  2  0  0  0  0
 52 53  1  0  0  0  0
 52 54  2  0  0  0  0
 54 55  1  0  0  0  0
 54 56  1  0  0  0  0
 56 57  1  0  0  0  0
 56 58  2  0  0  0  0
 58 59  1  0  0  0  0
 58 60  1  0  0  0  0
 60 61  1  0  0  0  0
M  END
>  <Activity>
9.5528

>  <AM1_dipole>
6.01507

>  <AM1_E>
-145415

>  <AM1_Eele>
-1.22304e+006

>  <AM1_HF>
148.564

>  <AM1_HOMO>
-9.08899

>  <AM1_IP>
9.08899

>  <AM1_LUMO>
-1.12278

>  <diameter>
21

>  <petitjean>
0.47619

>  <petitjeanSC>
0.909091

>  <radius>
11

>  <VDistEq>
4.0966

>  <VDistMa>
10.1689

>  <weinerPath>
5322

>  <weinerPol>
64

>  <BCUT_PEOE_0>
-2.71185

>  <BCUT_PEOE_1>
-0.647623

>  <BCUT_PEOE_2>
0.698352

>  <BCUT_PEOE_3>
2.65035

>  <BCUT_SLOGP_0>
-2.86001

>  <BCUT_SLOGP_1>
-0.53808

>  <BCUT_SLOGP_2>
0.805915

>  <BCUT_SLOGP_3>
2.50304

>  <BCUT_SMR_0>
-2.43203

>  <BCUT_SMR_1>
-0.471686

>  <BCUT_SMR_2>
0.854311

>  <BCUT_SMR_3>
2.92016

>  <GCUT_PEOE_0>
-0.849377

>  <GCUT_PEOE_1>
-0.403729

>  <GCUT_PEOE_2>
0.080099

>  <GCUT_PEOE_3>
2.7111

>  <GCUT_SLOGP_0>
-0.976513

>  <GCUT_SLOGP_1>
-0.347223

>  <GCUT_SLOGP_2>
0.164454

>  <GCUT_SLOGP_3>
2.70234

>  <GCUT_SMR_0>
-0.508911

>  <GCUT_SMR_1>
-0.216057

>  <GCUT_SMR_2>
0.21825

>  <GCUT_SMR_3>
2.98667

>  <a_aro>
26

>  <a_count>
61

>  <a_IC>
98.7207

>  <a_ICM>
1.61837

>  <a_nH>
23

>  <b_1rotN>
7

>  <b_1rotR>
0.162791

>  <b_ar>
27

>  <b_count>
66

>  <b_double>
3

>  <b_rotN>
7

>  <b_rotR>
0.162791

>  <b_single>
36

>  <b_triple>
0

>  <chi0v>
20.3194

>  <chi0v_C>
15.9113

>  <chi1v>
12.2142

>  <chi1v_C>
7.48205

>  <chiral>
0

>  <chiral_u>
0

>  <nmol>
1

>  <reactive>
0

>  <rings>
6

>  <Weight>
505.538

>  <a_heavy>
38

>  <a_nB>
0

>  <a_nBr>
0

>  <a_nC>
28

>  <a_nCl>
0

>  <a_nF>
0

>  <a_nI>
0

>  <a_nN>
7

>  <a_nO>
3

>  <a_nP>
0

>  <a_nS>
0

>  <b_heavy>
43

>  <chi0>
26.0619

>  <chi0_C>
18.5014

>  <chi1>
18.5974

>  <chi1_C>
10.2828

>  <FCharge>
0

>  <VAdjEq>
0.325683

>  <VAdjMa>
6.42626

>  <zagreb>
208

>  <balabanJ>
1.00508

>  <PEOE_PC+>
3.25481

>  <PEOE_PC->
-3.25481

>  <PEOE_RPC+>
0.0906815

>  <PEOE_RPC->
0.109327

>  <PEOE_VSA+0>
90.6782

>  <PEOE_VSA+1>
98.4812

>  <PEOE_VSA+2>
38.9014

>  <PEOE_VSA+3>
19.8096

>  <PEOE_VSA+4>
0

>  <PEOE_VSA+5>
34.3576

>  <PEOE_VSA+6>
0

>  <PEOE_VSA-0>
36.7647

>  <PEOE_VSA-1>
98.0392

>  <PEOE_VSA-2>
0

>  <PEOE_VSA-3>
9.42104

>  <PEOE_VSA-4>
11.3652

>  <PEOE_VSA-5>
40.7008

>  <PEOE_VSA-6>
0.136891

>  <PEOE_VSA_FHYD>
0.819159

>  <PEOE_VSA_FNEG>
0.410374

>  <PEOE_VSA_FPNEG>
0.109061

>  <PEOE_VSA_FPOL>
0.180841

>  <PEOE_VSA_FPOS>
0.589626

>  <PEOE_VSA_FPPOS>
0.0717793

>  <PEOE_VSA_HYD>
392.095

>  <PEOE_VSA_NEG>
196.428

>  <PEOE_VSA_PNEG>
52.2028

>  <PEOE_VSA_POL>
86.5604

>  <PEOE_VSA_POS>
282.228

>  <PEOE_VSA_PPOS>
34.3576

>  <PC+>
7.414

>  <PC->
-7.415

>  <Q_PC+>
7.414

>  <Q_PC->
-7.415

>  <Q_RPC+>
0.0884813

>  <Q_RPC->
0.0953473

>  <Q_VSA_FHYD>
0.505801

>  <Q_VSA_FNEG>
0.498669

>  <Q_VSA_FPNEG>
0.198428

>  <Q_VSA_FPOL>
0.494199

>  <Q_VSA_FPOS>
0.501331

>  <Q_VSA_FPPOS>
0.295771

>  <Q_VSA_HYD>
242.104

>  <Q_VSA_NEG>
238.691

>  <Q_VSA_PNEG>
94.9788

>  <Q_VSA_POL>
236.551

>  <Q_VSA_POS>
239.965

>  <Q_VSA_PPOS>
141.572

>  <RPC+>
0.0884813

>  <RPC->
0.0953473

>  <lip_acc>
10

>  <lip_don>
1

>  <lip_druglike>
1

>  <lip_violation>
1

>  <opr_brigid>
33

>  <opr_leadlike>
0

>  <opr_nring>
6

>  <opr_nrot>
7

>  <opr_violation>
3

>  <E>
114.705

>  <E_ang>
8.39278

>  <E_ele>
27.8974

>  <E_nb>
94.6884

>  <E_oop>
0.0394228

>  <E_sol>
-28.26

>  <E_stb>
1.18954

>  <E_str>
7.36721

>  <E_strain>
0.00567158

>  <E_tor>
3.02766

>  <E_vdw>
66.791

>  <E_rele>
0

>  <E_rnb>
7.10543e-014

>  <E_rsol>
7.10543e-014

>  <E_rvdw>
0

>  <Kier1>
28.1352

>  <Kier2>
12.8869

>  <Kier3>
6.13304

>  <KierA1>
18.5828

>  <KierA2>
8.40773

>  <KierA3>
3.96711

>  <KierFlex>
4.11156

>  <logS>
-5.7616

>  <MNDO_dipole>
6.26338

>  <MNDO_E>
-145692

>  <MNDO_Eele>
-1.21556e+006

>  <MNDO_HF>
72.2269

>  <MNDO_HOMO>
-9.29771

>  <MNDO_IP>
9.29771

>  <MNDO_LUMO>
-1.053

>  <apol>
74.7222

>  <bpol>
37.2578

>  <mr>
14.163

>  <dipole>
1.37948

>  <dipoleX>
0.448214

>  <dipoleY>
-1.29593

>  <dipoleZ>
0.150422

>  <pmi>
17419.9

>  <pmiX>
9387.55

>  <pmiY>
7243.09

>  <pmiZ>
789.221

>  <rgyr>
5.8701

>  <a_acc>
6

>  <a_acid>
0

>  <a_base>
0

>  <a_don>
1

>  <a_hyd>
23

>  <vsa_acc>
61.487

>  <vsa_acid>
0

>  <vsa_base>
0

>  <vsa_don>
5.68258

>  <vsa_hyd>
322.415

>  <vsa_other>
70.3387

>  <vsa_pol>
67.1695

>  <PM3_dipole>
5.70325

>  <PM3_E>
-131109

>  <PM3_Eele>
-1.20589e+006

>  <PM3_HF>
59.8474

>  <PM3_HOMO>
-9.04699

>  <PM3_IP>
9.04699

>  <PM3_LUMO>
-1.38996

>  <SlogP>
2.9779

>  <SlogP_VSA0>
0

>  <SlogP_VSA1>
74.4644

>  <SlogP_VSA2>
40.6477

>  <SlogP_VSA3>
73.7583

>  <SlogP_VSA4>
54.0956

>  <SlogP_VSA5>
0

>  <SlogP_VSA6>
0

>  <SlogP_VSA7>
257.848

>  <SlogP_VSA8>
0

>  <SlogP_VSA9>
0

>  <SMR>
13.9703

>  <SMR_VSA0>
71.5866

>  <SMR_VSA1>
58.2593

>  <SMR_VSA2>
16.7855

>  <SMR_VSA3>
6.37115

>  <SMR_VSA4>
12.5585

>  <SMR_VSA5>
245.289

>  <SMR_VSA6>
89.9635

>  <SMR_VSA7>
0

>  <ASA>
801.554

>  <ASA+>
367.043

>  <ASA->
334.21

>  <ASA_H>
560.335

>  <ASA_P>
241.219

>  <CASA+>
2721.25

>  <CASA->
2478.17

>  <DASA>
32.8325

>  <DCASA>
243.086

>  <FASA+>
0.457914

>  <FASA->
0.416953

>  <FASA_H>
0.699061

>  <FASA_P>
0.300939

>  <FCASA+>
3.39497

>  <FCASA->
3.0917

>  <VSA>
507.978

>  <TPSA>
117.08

>  <density>
0.763079

>  <vdw_area>
478.656

>  <vdw_vol>
662.497

>  <vsurf_A>
4.04376

>  <vsurf_CP>
0.101416

>  <vsurf_CW1>
2.59727

>  <vsurf_CW2>
2.06854

>  <vsurf_CW3>
1.27674

>  <vsurf_CW4>
0.581922

>  <vsurf_CW5>
0.2917

>  <vsurf_CW6>
0.123648

>  <vsurf_CW7>
0.0378254

>  <vsurf_CW8>
0.0155289

>  <vsurf_D1>
1244.88

>  <vsurf_D2>
742.375

>  <vsurf_D3>
547.875

>  <vsurf_D4>
467.375

>  <vsurf_D5>
403.75

>  <vsurf_D6>
331.625

>  <vsurf_D7>
195.375

>  <vsurf_D8>
113.625

>  <vsurf_DD12>
1.22474

>  <vsurf_DD13>
2.59808

>  <vsurf_DD23>
2.5

>  <vsurf_DW12>
0.5

>  <vsurf_DW13>
0.5

>  <vsurf_DW23>
1

>  <vsurf_EDmin1>
-2.84509

>  <vsurf_EDmin2>
-2.78479

>  <vsurf_EDmin3>
-2.78177

>  <vsurf_EWmin1>
-8.78951

>  <vsurf_EWmin2>
-8.5511

>  <vsurf_EWmin3>
-8.05287

>  <vsurf_G>
1.45076

>  <vsurf_HB1>
386.875

>  <vsurf_HB2>
411.75

>  <vsurf_HB3>
419.375

>  <vsurf_HB4>
173.875

>  <vsurf_HB5>
75

>  <vsurf_HB6>
27.125

>  <vsurf_HB7>
8.875

>  <vsurf_HB8>
3.125

>  <vsurf_HL1>
0.139402

>  <vsurf_HL2>
0.0580369

>  <vsurf_ID1>
1.28916

>  <vsurf_ID2>
1.2068

>  <vsurf_ID3>
1.25949

>  <vsurf_ID4>
1.42663

>  <vsurf_ID5>
1.63383

>  <vsurf_ID6>
1.66041

>  <vsurf_ID7>
1.29306

>  <vsurf_ID8>
1.37616

>  <vsurf_IW1>
0.0778511

>  <vsurf_IW2>
1.08226

>  <vsurf_IW3>
1.81712

>  <vsurf_IW4>
2.51725

>  <vsurf_IW5>
2.80454

>  <vsurf_IW6>
3.36566

>  <vsurf_IW7>
4.73273

>  <vsurf_IW8>
5.63099

>  <vsurf_R>
1.46317

>  <vsurf_S>
739.319

>  <vsurf_V>
1081.75

>  <vsurf_W1>
1786

>  <vsurf_W2>
1018.75

>  <vsurf_W3>
521.5

>  <vsurf_W4>
182

>  <vsurf_W5>
76.375

>  <vsurf_W6>
27.125

>  <vsurf_W7>
8.875

>  <vsurf_W8>
3.125

>  <vsurf_Wp1>
1399.13

>  <vsurf_Wp2>
607

>  <vsurf_Wp3>
102.125

>  <vsurf_Wp4>
8.125

>  <vsurf_Wp5>
1.375

>  <vsurf_Wp6>
0

>  <vsurf_Wp7>
0

>  <vsurf_Wp8>
0

>  <dens>
1.07533

>  <glob>
0.0379588

>  <std_dim1>
5.67652

>  <std_dim2>
2.39189

>  <std_dim3>
1.10596

>  <vol>
470.125

>  <logP(o/w)>
2.65612

$$$$
D18.cdx
  MOE2008           3D

 65 70  0  0  0  0  0  0  0  0999 V2000
   -5.1350  -17.5680   -0.2610 C   0  0  0  0  0  0  0  0  0  0  0  0
   -5.9720  -16.8870   -0.3810 H   0  0  0  0  0  0  0  0  0  0  0  0
   -5.2500  -18.7570   -0.8860 N   0  0  0  0  0  0  0  0  0  0  0  0
   -4.2280  -19.6520   -0.7750 C   0  0  0  0  0  0  0  0  0  0  0  0
   -3.1370  -19.2520    0.0000 C   0  0  0  0  0  0  0  0  0  0  0  0
   -3.1060  -18.0080    0.6140 C   0  0  0  0  0  0  0  0  0  0  0  0
   -4.1190  -17.1220    0.4900 N   0  0  0  0  0  0  0  0  0  0  0  0
   -1.9650  -19.8920    0.3220 N   0  0  0  0  0  0  0  0  0  0  0  0
   -1.7330  -20.8250   -0.0040 H   0  0  0  0  0  0  0  0  0  0  0  0
   -1.1990  -19.0900    1.1230 C   0  0  0  0  0  0  0  0  0  0  0  0
   -0.2370  -19.4400    1.4790 H   0  0  0  0  0  0  0  0  0  0  0  0
   -1.8780  -17.8990    1.3280 C   0  0  0  0  0  0  0  0  0  0  0  0
   -1.3990  -16.7740    2.1180 C   0  0  0  0  0  0  0  0  0  0  0  0
   -0.0200  -16.8470    2.7510 C   0  0  0  0  0  0  0  0  0  0  0  0
    1.0400  -16.3530    1.9940 N   0  0  0  0  0  0  0  0  0  0  0  0
    2.4050  -16.4860    2.5030 C   0  0  0  0  0  0  0  0  0  0  0  0
    2.6410  -15.5510    3.0260 H   0  0  0  0  0  0  0  0  0  0  0  0
    2.4600  -17.2970    3.2350 H   0  0  0  0  0  0  0  0  0  0  0  0
    3.4080  -16.7280    1.3710 C   0  0  0  0  0  0  0  0  0  0  0  0
    3.1850  -17.6850    0.8860 H   0  0  0  0  0  0  0  0  0  0  0  0
    4.4250  -16.7760    1.7740 H   0  0  0  0  0  0  0  0  0  0  0  0
    3.3400  -15.6930    0.3260 N   0  0  0  0  0  0  0  0  0  0  0  0
    2.1100  -14.9000    0.2620 C   0  0  0  0  0  0  0  0  0  0  0  0
    2.2550  -14.0450    0.9340 H   0  0  0  0  0  0  0  0  0  0  0  0
    1.9680  -14.5010   -0.7480 H   0  0  0  0  0  0  0  0  0  0  0  0
    0.8750  -15.6980    0.6890 C   0  0  0  0  0  0  0  0  0  0  0  0
    0.6780  -16.4950   -0.0380 H   0  0  0  0  0  0  0  0  0  0  0  0
   -0.0030  -15.0450    0.7140 H   0  0  0  0  0  0  0  0  0  0  0  0
    4.3670  -15.4030   -0.5710 C   0  0  0  0  0  0  0  0  0  0  0  0
    5.5520  -16.2900   -0.6040 C   0  0  0  0  0  0  0  0  0  0  0  0
   -2.0350  -15.7410    2.3010 O   0  0  0  0  0  0  0  0  0  0  0  0
    0.0730  -17.3610    3.8600 O   0  0  0  0  0  0  0  0  0  0  0  0
    4.3630  -14.4460   -1.3390 O   0  0  0  0  0  0  0  0  0  0  0  0
    6.8110  -15.7420   -0.3380 C   0  0  0  0  0  0  0  0  0  0  0  0
    6.9120  -14.6880   -0.0930 H   0  0  0  0  0  0  0  0  0  0  0  0
    7.9410  -16.5570   -0.3910 C   0  0  0  0  0  0  0  0  0  0  0  0
    8.9230  -16.1400   -0.1820 H   0  0  0  0  0  0  0  0  0  0  0  0
    7.8130  -17.9080   -0.7220 C   0  0  0  0  0  0  0  0  0  0  0  0
    8.6970  -18.5400   -0.7660 H   0  0  0  0  0  0  0  0  0  0  0  0
    6.5570  -18.4470   -1.0090 C   0  0  0  0  0  0  0  0  0  0  0  0
    6.4670  -19.4960   -1.2810 H   0  0  0  0  0  0  0  0  0  0  0  0
    5.4220  -17.6370   -0.9580 C   0  0  0  0  0  0  0  0  0  0  0  0
    4.4510  -18.0550   -1.2070 H   0  0  0  0  0  0  0  0  0  0  0  0
   -4.2840  -20.9170   -1.4200 N   0  0  0  0  0  0  0  0  0  0  0  0
   -5.3210  -21.4030   -2.1730 C   0  0  0  0  0  0  0  0  0  0  0  0
   -6.2190  -20.8240   -2.3420 H   0  0  0  0  0  0  0  0  0  0  0  0
   -4.9450  -22.6550   -2.5890 C   0  0  0  0  0  0  0  0  0  0  0  0
   -5.5260  -23.3220   -3.2100 H   0  0  0  0  0  0  0  0  0  0  0  0
   -3.6470  -22.8640   -2.0480 C   0  0  0  0  0  0  0  0  0  0  0  0
   -3.2510  -21.7950   -1.3380 N   0  0  0  0  0  0  0  0  0  0  0  0
   -2.7900  -24.0420   -2.1990 C   0  0  0  0  0  0  0  0  0  0  0  0
   -3.3340  -25.2940   -2.5080 C   0  0  0  0  0  0  0  0  0  0  0  0
   -4.4060  -25.4290   -2.6280 H   0  0  0  0  0  0  0  0  0  0  0  0
   -2.5040  -26.4090   -2.6540 C   0  0  0  0  0  0  0  0  0  0  0  0
   -2.9430  -27.3750   -2.8900 H   0  0  0  0  0  0  0  0  0  0  0  0
   -1.1210  -26.2980   -2.4970 C   0  0  0  0  0  0  0  0  0  0  0  0
   -0.5700  -25.0550   -2.1880 C   0  0  0  0  0  0  0  0  0  0  0  0
    0.4980  -24.9170   -2.0580 H   0  0  0  0  0  0  0  0  0  0  0  0
   -1.4000  -23.9360   -2.0390 C   0  0  0  0  0  0  0  0  0  0  0  0
   -0.9460  -22.9760   -1.8040 H   0  0  0  0  0  0  0  0  0  0  0  0
   -0.4300  -27.4650   -2.6710 O   0  0  0  0  0  0  0  0  0  0  0  0
    0.9830  -27.4060   -2.5270 C   0  0  0  0  0  0  0  0  0  0  0  0
    1.3790  -28.4120   -2.6970 H   0  0  0  0  0  0  0  0  0  0  0  0
    1.2650  -27.1040   -1.5130 H   0  0  0  0  0  0  0  0  0  0  0  0
    1.4290  -26.7420   -3.2760 H   0  0  0  0  0  0  0  0  0  0  0  0
  1  2  1  0  0  0  0
  1  3  1  0  0  0  0
  1  7  2  0  0  0  0
  3  4  2  0  0  0  0
  4  5  1  0  0  0  0
  4 44  1  0  0  0  0
  5  6  2  0  0  0  0
  5  8  1  0  0  0  0
  6  7  1  0  0  0  0
  6 12  1  0  0  0  0
  8  9  1  0  0  0  0
  8 10  1  0  0  0  0
 10 11  1  0  0  0  0
 10 12  2  0  0  0  0
 12 13  1  0  0  0  0
 13 14  1  0  0  0  0
 13 31  2  0  0  0  0
 14 15  1  0  0  0  0
 14 32  2  0  0  0  0
 15 16  1  0  0  0  0
 15 26  1  0  0  0  0
 16 17  1  0  0  0  0
 16 18  1  0  0  0  0
 16 19  1  0  0  0  0
 19 20  1  0  0  0  0
 19 21  1  0  0  0  0
 19 22  1  0  0  0  0
 22 23  1  0  0  0  0
 22 29  1  0  0  0  0
 23 24  1  0  0  0  0
 23 25  1  0  0  0  0
 23 26  1  0  0  0  0
 26 27  1  0  0  0  0
 26 28  1  0  0  0  0
 29 30  1  0  0  0  0
 29 33  2  0  0  0  0
 30 34  1  0  0  0  0
 30 42  2  0  0  0  0
 34 35  1  0  0  0  0
 34 36  2  0  0  0  0
 36 37  1  0  0  0  0
 36 38  1  0  0  0  0
 38 39  1  0  0  0  0
 38 40  2  0  0  0  0
 40 41  1  0  0  0  0
 40 42  1  0  0  0  0
 42 43  1  0  0  0  0
 44 45  1  0  0  0  0
 44 50  1  0  0  0  0
 45 46  1  0  0  0  0
 45 47  2  0  0  0  0
 47 48  1  0  0  0  0
 47 49  1  0  0  0  0
 49 50  2  0  0  0  0
 49 51  1  0  0  0  0
 51 52  1  0  0  0  0
 51 59  2  0  0  0  0
 52 53  1  0  0  0  0
 52 54  2  0  0  0  0
 54 55  1  0  0  0  0
 54 56  1  0  0  0  0
 56 57  2  0  0  0  0
 56 61  1  0  0  0  0
 57 58  1  0  0  0  0
 57 59  1  0  0  0  0
 59 60  1  0  0  0  0
 61 62  1  0  0  0  0
 62 63  1  0  0  0  0
 62 64  1  0  0  0  0
 62 65  1  0  0  0  0
M  END
>  <Activity>
9.6197

>  <AM1_dipole>
7.084

>  <AM1_E>
-156386

>  <AM1_Eele>
-1.35477e+006

>  <AM1_HF>
100.503

>  <AM1_HOMO>
-8.87881

>  <AM1_IP>
8.87881

>  <AM1_LUMO>
-1.15148

>  <diameter>
23

>  <petitjean>
0.478261

>  <petitjeanSC>
0.916667

>  <radius>
12

>  <VDistEq>
4.19147

>  <VDistMa>
10.3131

>  <weinerPath>
6241

>  <weinerPol>
68

>  <BCUT_PEOE_0>
-2.71185

>  <BCUT_PEOE_1>
-0.636688

>  <BCUT_PEOE_2>
0.686473

>  <BCUT_PEOE_3>
2.65035

>  <BCUT_SLOGP_0>
-2.86001

>  <BCUT_SLOGP_1>
-0.53808

>  <BCUT_SLOGP_2>
0.779674

>  <BCUT_SLOGP_3>
2.50304

>  <BCUT_SMR_0>
-2.43203

>  <BCUT_SMR_1>
-0.449387

>  <BCUT_SMR_2>
0.854311

>  <BCUT_SMR_3>
2.92016

>  <GCUT_PEOE_0>
-0.849378

>  <GCUT_PEOE_1>
-0.403803

>  <GCUT_PEOE_2>
0.0804949

>  <GCUT_PEOE_3>
2.72004

>  <GCUT_SLOGP_0>
-0.976513

>  <GCUT_SLOGP_1>
-0.348754

>  <GCUT_SLOGP_2>
0.156745

>  <GCUT_SLOGP_3>
2.71923

>  <GCUT_SMR_0>
-0.508912

>  <GCUT_SMR_1>
-0.213342

>  <GCUT_SMR_2>
0.209771

>  <GCUT_SMR_3>
2.99602

>  <a_aro>
26

>  <a_count>
65

>  <a_IC>
106.825

>  <a_ICM>
1.64345

>  <a_nH>
25

>  <b_1rotN>
8

>  <b_1rotR>
0.177778

>  <b_ar>
27

>  <b_count>
70

>  <b_double>
3

>  <b_rotN>
8

>  <b_rotR>
0.177778

>  <b_single>
40

>  <b_triple>
0

>  <chi0v>
21.6503

>  <chi0v_C>
16.834

>  <chi1v>
12.7373

>  <chi1v_C>
7.39273

>  <chiral>
0

>  <chiral_u>
0

>  <nmol>
1

>  <reactive>
0

>  <rings>
6

>  <Weight>
535.564

>  <a_heavy>
40

>  <a_nB>
0

>  <a_nBr>
0

>  <a_nC>
29

>  <a_nCl>
0

>  <a_nF>
0

>  <a_nI>
0

>  <a_nN>
7

>  <a_nO>
4

>  <a_nP>
0

>  <a_nS>
0

>  <b_heavy>
45

>  <chi0>
27.6393

>  <chi0_C>
19.3717

>  <chi1>
19.5292

>  <chi1_C>
10.0993

>  <FCharge>
0

>  <VAdjEq>
0.312375

>  <VAdjMa>
6.49185

>  <zagreb>
218

>  <balabanJ>
0.992498

>  <PEOE_PC+>
3.47599

>  <PEOE_PC->
-3.47599

>  <PEOE_RPC+>
0.0849113

>  <PEOE_RPC->
0.102371

>  <PEOE_VSA+0>
115.676

>  <PEOE_VSA+1>
115.47

>  <PEOE_VSA+2>
38.9014

>  <PEOE_VSA+3>
19.8096

>  <PEOE_VSA+4>
0

>  <PEOE_VSA+5>
34.3576

>  <PEOE_VSA+6>
0

>  <PEOE_VSA-0>
61.2745

>  <PEOE_VSA-1>
61.2745

>  <PEOE_VSA-2>
0

>  <PEOE_VSA-3>
9.42104

>  <PEOE_VSA-4>
11.3652

>  <PEOE_VSA-5>
40.7008

>  <PEOE_VSA-6>
2.64065

>  <PEOE_VSA_FHYD>
0.825669

>  <PEOE_VSA_FNEG>
0.365394

>  <PEOE_VSA_FPNEG>
0.107081

>  <PEOE_VSA_FPOL>
0.174331

>  <PEOE_VSA_FPOS>
0.634606

>  <PEOE_VSA_FPPOS>
0.0672502

>  <PEOE_VSA_HYD>
421.827

>  <PEOE_VSA_NEG>
186.677

>  <PEOE_VSA_PNEG>
54.7066

>  <PEOE_VSA_POL>
89.0641

>  <PEOE_VSA_POS>
324.215

>  <PEOE_VSA_PPOS>
34.3576

>  <PC+>
7.626

>  <PC->
-7.628

>  <Q_PC+>
7.626

>  <Q_PC->
-7.628

>  <Q_RPC+>
0.0860215

>  <Q_RPC->
0.0926848

>  <Q_VSA_FHYD>
0.483153

>  <Q_VSA_FNEG>
0.448118

>  <Q_VSA_FPNEG>
0.190809

>  <Q_VSA_FPOL>
0.516847

>  <Q_VSA_FPOS>
0.551882

>  <Q_VSA_FPPOS>
0.326038

>  <Q_VSA_HYD>
246.839

>  <Q_VSA_NEG>
228.94

>  <Q_VSA_PNEG>
97.4825

>  <Q_VSA_POL>
264.053

>  <Q_VSA_POS>
281.952

>  <Q_VSA_PPOS>
166.57

>  <RPC+>
0.0860215

>  <RPC->
0.0926848

>  <lip_acc>
11

>  <lip_don>
1

>  <lip_druglike>
0

>  <lip_violation>
2

>  <opr_brigid>
33

>  <opr_leadlike>
0

>  <opr_nring>
6

>  <opr_nrot>
8

>  <opr_violation>
3

>  <E>
124.326

>  <E_ang>
13.8444

>  <E_ele>
24.2692

>  <E_nb>
96.4851

>  <E_oop>
0.0708788

>  <E_sol>
-20.362

>  <E_stb>
1.13722

>  <E_str>
7.45325

>  <E_strain>
0.00621938

>  <E_tor>
5.33541

>  <E_vdw>
72.2159

>  <E_rele>
0

>  <E_rnb>
1.42109e-014

>  <E_rsol>
1.42109e-014

>  <E_rvdw>
0

>  <Kier1>
30.0444

>  <Kier2>
13.749

>  <Kier3>
6.59605

>  <KierA1>
20.2962

>  <KierA2>
9.18681

>  <KierA3>
4.37375

>  <KierFlex>
4.66144

>  <logS>
-5.81198

>  <MNDO_dipole>
7.26277

>  <MNDO_E>
-156724

>  <MNDO_Eele>
-1.34514e+006

>  <MNDO_HF>
33.6012

>  <MNDO_HOMO>
-9.18735

>  <MNDO_IP>
9.18735

>  <MNDO_LUMO>
-1.07879

>  <apol>
78.6178

>  <bpol>
41.3602

>  <mr>
14.8159

>  <dipole>
1.69339

>  <dipoleX>
0.817556

>  <dipoleY>
-1.39238

>  <dipoleZ>
-0.51036

>  <pmi>
17290.8

>  <pmiX>
7875.32

>  <pmiY>
7791.24

>  <pmiZ>
1624.27

>  <rgyr>
5.68201

>  <a_acc>
7

>  <a_acid>
0

>  <a_base>
0

>  <a_don>
1

>  <a_hyd>
24

>  <vsa_acc>
63.9907

>  <vsa_acid>
0

>  <vsa_base>
0

>  <vsa_don>
5.68258

>  <vsa_hyd>
350.723

>  <vsa_other>
70.3387

>  <vsa_pol>
69.6733

>  <PM3_dipole>
6.68932

>  <PM3_E>
-141319

>  <PM3_Eele>
-1.33129e+006

>  <PM3_HF>
23.7992

>  <PM3_HOMO>
-8.84865

>  <PM3_IP>
8.84865

>  <PM3_LUMO>
-1.37754

>  <SlogP>
2.9865

>  <SlogP_VSA0>
10.9999

>  <SlogP_VSA1>
74.4644

>  <SlogP_VSA2>
40.6477

>  <SlogP_VSA3>
73.7583

>  <SlogP_VSA4>
54.0956

>  <SlogP_VSA5>
35.3839

>  <SlogP_VSA6>
0

>  <SlogP_VSA7>
240.205

>  <SlogP_VSA8>
0

>  <SlogP_VSA9>
5.24343

>  <SMR>
14.6255

>  <SMR_VSA0>
71.5866

>  <SMR_VSA1>
69.2592

>  <SMR_VSA2>
16.7855

>  <SMR_VSA3>
11.6146

>  <SMR_VSA4>
12.5585

>  <SMR_VSA5>
227.646

>  <SMR_VSA6>
89.9635

>  <SMR_VSA7>
35.3839

>  <ASA>
849.434

>  <ASA+>
369.868

>  <ASA->
322.72

>  <ASA_H>
565.355

>  <ASA_P>
284.079

>  <CASA+>
2820.61

>  <CASA->
2461.71

>  <DASA>
47.1481

>  <DCASA>
358.906

>  <FASA+>
0.435429

>  <FASA->
0.379924

>  <FASA_H>
0.665567

>  <FASA_P>
0.334433

>  <FCASA+>
3.32058

>  <FCASA->
2.89806

>  <VSA>
535.758

>  <TPSA>
126.31

>  <density>
0.767737

>  <vdw_area>
510.892

>  <vdw_vol>
697.588

>  <vsurf_A>
5.31638

>  <vsurf_CP>
0.118037

>  <vsurf_CW1>
2.58506

>  <vsurf_CW2>
2.11012

>  <vsurf_CW3>
1.35552

>  <vsurf_CW4>
0.600827

>  <vsurf_CW5>
0.286033

>  <vsurf_CW6>
0.120747

>  <vsurf_CW7>
0.0323651

>  <vsurf_CW8>
0.0154211

>  <vsurf_D1>
1279.5

>  <vsurf_D2>
776.375

>  <vsurf_D3>
578.875

>  <vsurf_D4>
485.875

>  <vsurf_D5>
416.75

>  <vsurf_D6>
333.875

>  <vsurf_D7>
218

>  <vsurf_D8>
126.5

>  <vsurf_DD12>
3.74166

>  <vsurf_DD13>
4.06202

>  <vsurf_DD23>
0.707107

>  <vsurf_DW12>
0.5

>  <vsurf_DW13>
1.11803

>  <vsurf_DW23>
0.707107

>  <vsurf_EDmin1>
-2.90524

>  <vsurf_EDmin2>
-2.86674

>  <vsurf_EDmin3>
-2.86356

>  <vsurf_EWmin1>
-8.57716

>  <vsurf_EWmin2>
-8.10748

>  <vsurf_EWmin3>
-7.93088

>  <vsurf_G>
1.47323

>  <vsurf_HB1>
465

>  <vsurf_HB2>
514.125

>  <vsurf_HB3>
461.25

>  <vsurf_HB4>
188.75

>  <vsurf_HB5>
74.625

>  <vsurf_HB6>
27.25

>  <vsurf_HB7>
7.625

>  <vsurf_HB8>
3.625

>  <vsurf_HL1>
0.132153

>  <vsurf_HL2>
0.0563417

>  <vsurf_ID1>
1.4576

>  <vsurf_ID2>
1.40858

>  <vsurf_ID3>
1.51321

>  <vsurf_ID4>
1.7309

>  <vsurf_ID5>
1.95724

>  <vsurf_ID6>
1.74091

>  <vsurf_ID7>
1.41389

>  <vsurf_ID8>
1.29252

>  <vsurf_IW1>
0.0510416

>  <vsurf_IW2>
1.06281

>  <vsurf_IW3>
1.99637

>  <vsurf_IW4>
2.99111

>  <vsurf_IW5>
3.80566

>  <vsurf_IW6>
4.33893

>  <vsurf_IW7>
5.6914

>  <vsurf_IW8>
6.7195

>  <vsurf_R>
1.46707

>  <vsurf_S>
778.338

>  <vsurf_V>
1141.88

>  <vsurf_W1>
1905.88

>  <vsurf_W2>
1126.75

>  <vsurf_W3>
574.5

>  <vsurf_W4>
197.375

>  <vsurf_W5>
76.5

>  <vsurf_W6>
27.375

>  <vsurf_W7>
7.625

>  <vsurf_W8>
3.625

>  <vsurf_Wp1>
1440.88

>  <vsurf_Wp2>
612.625

>  <vsurf_Wp3>
113.25

>  <vsurf_Wp4>
8.625

>  <vsurf_Wp5>
1.875

>  <vsurf_Wp6>
0.125

>  <vsurf_Wp7>
0

>  <vsurf_Wp8>
0

>  <dens>
1.07922

>  <glob>
0.0521833

>  <std_dim1>
4.89383

>  <std_dim2>
3.21863

>  <std_dim3>
1.11793

>  <vol>
496.25

>  <logP(o/w)>
2.61212

$$$$
D18.cdx
  MOE2008           3D

 65 70  0  0  0  0  0  0  0  0999 V2000
   -3.4640  -25.4730   -0.9960 C   0  0  0  0  0  0  0  0  0  0  0  0
   -4.3000  -24.9250   -1.4200 H   0  0  0  0  0  0  0  0  0  0  0  0
   -3.4890  -26.8100   -1.1690 N   0  0  0  0  0  0  0  0  0  0  0  0
   -2.4660  -27.5470   -0.6550 C   0  0  0  0  0  0  0  0  0  0  0  0
   -1.4680  -26.8380    0.0190 C   0  0  0  0  0  0  0  0  0  0  0  0
   -1.5210  -25.4590    0.1470 C   0  0  0  0  0  0  0  0  0  0  0  0
   -2.5380  -24.7320   -0.3680 N   0  0  0  0  0  0  0  0  0  0  0  0
   -0.3140  -27.2620    0.6330 N   0  0  0  0  0  0  0  0  0  0  0  0
   -0.0320  -28.2390    0.6690 H   0  0  0  0  0  0  0  0  0  0  0  0
    0.3550  -26.1910    1.1590 C   0  0  0  0  0  0  0  0  0  0  0  0
    1.2870  -26.3420    1.6890 H   0  0  0  0  0  0  0  0  0  0  0  0
   -0.3630  -25.0410    0.8650 C   0  0  0  0  0  0  0  0  0  0  0  0
    0.0320  -23.6860    1.2210 C   0  0  0  0  0  0  0  0  0  0  0  0
    1.3390  -23.4650    1.9630 C   0  0  0  0  0  0  0  0  0  0  0  0
    2.4830  -23.3110    1.1810 N   0  0  0  0  0  0  0  0  0  0  0  0
    3.7850  -23.1830    1.8350 C   0  0  0  0  0  0  0  0  0  0  0  0
    3.9830  -22.1090    1.9360 H   0  0  0  0  0  0  0  0  0  0  0  0
    3.7470  -23.6070    2.8440 H   0  0  0  0  0  0  0  0  0  0  0  0
    4.8970  -23.8520    1.0230 C   0  0  0  0  0  0  0  0  0  0  0  0
    4.7110  -24.9310    0.9740 H   0  0  0  0  0  0  0  0  0  0  0  0
    5.8640  -23.6930    1.5100 H   0  0  0  0  0  0  0  0  0  0  0  0
    4.9560  -23.3660   -0.3640 N   0  0  0  0  0  0  0  0  0  0  0  0
    3.7570  -22.7030   -0.8840 C   0  0  0  0  0  0  0  0  0  0  0  0
    3.8520  -21.6410   -0.6260 H   0  0  0  0  0  0  0  0  0  0  0  0
    3.7280  -22.7730   -1.9760 H   0  0  0  0  0  0  0  0  0  0  0  0
    2.4670  -23.2720   -0.2880 C   0  0  0  0  0  0  0  0  0  0  0  0
    2.3270  -24.3050   -0.6270 H   0  0  0  0  0  0  0  0  0  0  0  0
    1.6060  -22.6890   -0.6290 H   0  0  0  0  0  0  0  0  0  0  0  0
    6.0730  -23.4650   -1.1920 C   0  0  0  0  0  0  0  0  0  0  0  0
    7.2480  -24.2290   -0.7140 C   0  0  0  0  0  0  0  0  0  0  0  0
   -0.6190  -22.6850    0.9420 O   0  0  0  0  0  0  0  0  0  0  0  0
    1.3080  -23.4690    3.1880 O   0  0  0  0  0  0  0  0  0  0  0  0
    6.1620  -22.9380   -2.2980 O   0  0  0  0  0  0  0  0  0  0  0  0
    7.1530  -25.6000   -0.4580 C   0  0  0  0  0  0  0  0  0  0  0  0
    6.2130  -26.1260   -0.5960 H   0  0  0  0  0  0  0  0  0  0  0  0
    8.2830  -26.3000   -0.0340 C   0  0  0  0  0  0  0  0  0  0  0  0
    8.2200  -27.3660    0.1710 H   0  0  0  0  0  0  0  0  0  0  0  0
    9.5020  -25.6350    0.1160 C   0  0  0  0  0  0  0  0  0  0  0  0
   10.3830  -26.1830    0.4420 H   0  0  0  0  0  0  0  0  0  0  0  0
    9.5980  -24.2710   -0.1640 C   0  0  0  0  0  0  0  0  0  0  0  0
   10.5520  -23.7610   -0.0590 H   0  0  0  0  0  0  0  0  0  0  0  0
    8.4720  -23.5650   -0.5870 C   0  0  0  0  0  0  0  0  0  0  0  0
    8.5500  -22.5050   -0.8160 H   0  0  0  0  0  0  0  0  0  0  0  0
   -2.4010  -28.9560   -0.8170 N   0  0  0  0  0  0  0  0  0  0  0  0
   -3.2880  -29.7570   -1.4900 C   0  0  0  0  0  0  0  0  0  0  0  0
   -4.1780  -29.3530   -1.9520 H   0  0  0  0  0  0  0  0  0  0  0  0
   -2.7690  -31.0300   -1.4430 C   0  0  0  0  0  0  0  0  0  0  0  0
   -3.1940  -31.9160   -1.8940 H   0  0  0  0  0  0  0  0  0  0  0  0
   -1.5610  -30.9210   -0.7030 C   0  0  0  0  0  0  0  0  0  0  0  0
   -1.3750  -29.6630   -0.2820 N   0  0  0  0  0  0  0  0  0  0  0  0
   -0.6190  -31.9870   -0.3610 C   0  0  0  0  0  0  0  0  0  0  0  0
   -1.1300  -33.1910    0.1530 C   0  0  0  0  0  0  0  0  0  0  0  0
   -2.2010  -33.3240    0.2930 H   0  0  0  0  0  0  0  0  0  0  0  0
   -0.2730  -34.2290    0.5130 C   0  0  0  0  0  0  0  0  0  0  0  0
   -0.6780  -35.1530    0.9160 H   0  0  0  0  0  0  0  0  0  0  0  0
    1.1020  -34.0770    0.3610 C   0  0  0  0  0  0  0  0  0  0  0  0
    1.7710  -34.8880    0.6390 H   0  0  0  0  0  0  0  0  0  0  0  0
    1.6250  -32.8880   -0.1530 C   0  0  0  0  0  0  0  0  0  0  0  0
    2.7020  -32.8210   -0.2700 H   0  0  0  0  0  0  0  0  0  0  0  0
    0.7770  -31.8330   -0.5150 C   0  0  0  0  0  0  0  0  0  0  0  0
    1.2230  -30.6520   -1.0580 O   0  0  0  0  0  0  0  0  0  0  0  0
    2.6160  -30.3780   -0.9950 C   0  0  0  0  0  0  0  0  0  0  0  0
    2.7700  -29.3530   -1.3470 H   0  0  0  0  0  0  0  0  0  0  0  0
    3.1760  -31.0450   -1.6590 H   0  0  0  0  0  0  0  0  0  0  0  0
    2.9890  -30.4360    0.0330 H   0  0  0  0  0  0  0  0  0  0  0  0
  1  2  1  0  0  0  0
  1  3  1  0  0  0  0
  1  7  2  0  0  0  0
  3  4  2  0  0  0  0
  4  5  1  0  0  0  0
  4 44  1  0  0  0  0
  5  6  2  0  0  0  0
  5  8  1  0  0  0  0
  6  7  1  0  0  0  0
  6 12  1  0  0  0  0
  8  9  1  0  0  0  0
  8 10  1  0  0  0  0
 10 11  1  0  0  0  0
 10 12  2  0  0  0  0
 12 13  1  0  0  0  0
 13 14  1  0  0  0  0
 13 31  2  0  0  0  0
 14 15  1  0  0  0  0
 14 32  2  0  0  0  0
 15 16  1  0  0  0  0
 15 26  1  0  0  0  0
 16 17  1  0  0  0  0
 16 18  1  0  0  0  0
 16 19  1  0  0  0  0
 19 20  1  0  0  0  0
 19 21  1  0  0  0  0
 19 22  1  0  0  0  0
 22 23  1  0  0  0  0
 22 29  1  0  0  0  0
 23 24  1  0  0  0  0
 23 25  1  0  0  0  0
 23 26  1  0  0  0  0
 26 27  1  0  0  0  0
 26 28  1  0  0  0  0
 29 30  1  0  0  0  0
 29 33  2  0  0  0  0
 30 34  1  0  0  0  0
 30 42  2  0  0  0  0
 34 35  1  0  0  0  0
 34 36  2  0  0  0  0
 36 37  1  0  0  0  0
 36 38  1  0  0  0  0
 38 39  1  0  0  0  0
 38 40  2  0  0  0  0
 40 41  1  0  0  0  0
 40 42  1  0  0  0  0
 42 43  1  0  0  0  0
 44 45  1  0  0  0  0
 44 50  1  0  0  0  0
 45 46  1  0  0  0  0
 45 47  2  0  0  0  0
 47 48  1  0  0  0  0
 47 49  1  0  0  0  0
 49 50  2  0  0  0  0
 49 51  1  0  0  0  0
 51 52  1  0  0  0  0
 51 60  2  0  0  0  0
 52 53  1  0  0  0  0
 52 54  2  0  0  0  0
 54 55  1  0  0  0  0
 54 56  1  0  0  0  0
 56 57  1  0  0  0  0
 56 58  2  0  0  0  0
 58 59  1  0  0  0  0
 58 60  1  0  0  0  0
 60 61  1  0  0  0  0
 61 62  1  0  0  0  0
 62 63  1  0  0  0  0
 62 64  1  0  0  0  0
 62 65  1  0  0  0  0
M  END
>  <Activity>
9.4436

>  <AM1_dipole>
8.06196

>  <AM1_E>
-156384

>  <AM1_Eele>
-1.38895e+006

>  <AM1_HF>
104.121

>  <AM1_HOMO>
-8.99437

>  <AM1_IP>
8.99437

>  <AM1_LUMO>
-1.05548

>  <diameter>
21

>  <petitjean>
0.47619

>  <petitjeanSC>
0.909091

>  <radius>
11

>  <VDistEq>
4.1412

>  <VDistMa>
10.3188

>  <weinerPath>
6113

>  <weinerPol>
69

>  <BCUT_PEOE_0>
-2.71185

>  <BCUT_PEOE_1>
-0.639827

>  <BCUT_PEOE_2>
0.661931

>  <BCUT_PEOE_3>
2.65035

>  <BCUT_SLOGP_0>
-2.86001

>  <BCUT_SLOGP_1>
-0.553561

>  <BCUT_SLOGP_2>
0.758126

>  <BCUT_SLOGP_3>
2.50304

>  <BCUT_SMR_0>
-2.43203

>  <BCUT_SMR_1>
-0.447868

>  <BCUT_SMR_2>
0.843868

>  <BCUT_SMR_3>
2.92016

>  <GCUT_PEOE_0>
-0.849376

>  <GCUT_PEOE_1>
-0.406681

>  <GCUT_PEOE_2>
0.074185

>  <GCUT_PEOE_3>
2.72587

>  <GCUT_SLOGP_0>
-0.976514

>  <GCUT_SLOGP_1>
-0.347969

>  <GCUT_SLOGP_2>
0.15394

>  <GCUT_SLOGP_3>
2.72929

>  <GCUT_SMR_0>
-0.508913

>  <GCUT_SMR_1>
-0.213281

>  <GCUT_SMR_2>
0.209827

>  <GCUT_SMR_3>
3.00214

>  <a_aro>
26

>  <a_count>
65

>  <a_IC>
106.825

>  <a_ICM>
1.64345

>  <a_nH>
25

>  <b_1rotN>
8

>  <b_1rotR>
0.177778

>  <b_ar>
27

>  <b_count>
70

>  <b_double>
3

>  <b_rotN>
8

>  <b_rotR>
0.177778

>  <b_single>
40

>  <b_triple>
0

>  <chi0v>
21.6503

>  <chi0v_C>
16.834

>  <chi1v>
12.7433

>  <chi1v_C>
7.39872

>  <chiral>
0

>  <chiral_u>
0

>  <nmol>
1

>  <reactive>
0

>  <rings>
6

>  <Weight>
535.564

>  <a_heavy>
40

>  <a_nB>
0

>  <a_nBr>
0

>  <a_nC>
29

>  <a_nCl>
0

>  <a_nF>
0

>  <a_nI>
0

>  <a_nN>
7

>  <a_nO>
4

>  <a_nP>
0

>  <a_nS>
0

>  <b_heavy>
45

>  <chi0>
27.6393

>  <chi0_C>
19.3717

>  <chi1>
19.546

>  <chi1_C>
10.1162

>  <FCharge>
0

>  <VAdjEq>
0.312375

>  <VAdjMa>
6.49185

>  <zagreb>
218

>  <balabanJ>
1.01049

>  <PEOE_PC+>
3.51422

>  <PEOE_PC->
-3.51422

>  <PEOE_RPC+>
0.0839878

>  <PEOE_RPC->
0.101257

>  <PEOE_VSA+0>
115.676

>  <PEOE_VSA+1>
115.47

>  <PEOE_VSA+2>
38.9014

>  <PEOE_VSA+3>
19.8096

>  <PEOE_VSA+4>
0

>  <PEOE_VSA+5>
34.3576

>  <PEOE_VSA+6>
0

>  <PEOE_VSA-0>
49.0196

>  <PEOE_VSA-1>
73.5294

>  <PEOE_VSA-2>
0

>  <PEOE_VSA-3>
9.42104

>  <PEOE_VSA-4>
11.3652

>  <PEOE_VSA-5>
40.7008

>  <PEOE_VSA-6>
2.64065

>  <PEOE_VSA_FHYD>
0.825669

>  <PEOE_VSA_FNEG>
0.365394

>  <PEOE_VSA_FPNEG>
0.107081

>  <PEOE_VSA_FPOL>
0.174331

>  <PEOE_VSA_FPOS>
0.634606

>  <PEOE_VSA_FPPOS>
0.0672502

>  <PEOE_VSA_HYD>
421.827

>  <PEOE_VSA_NEG>
186.677

>  <PEOE_VSA_PNEG>
54.7066

>  <PEOE_VSA_POL>
89.0641

>  <PEOE_VSA_POS>
324.215

>  <PEOE_VSA_PPOS>
34.3576

>  <PC+>
7.626

>  <PC->
-7.628

>  <Q_PC+>
7.626

>  <Q_PC->
-7.628

>  <Q_RPC+>
0.0860215

>  <Q_RPC->
0.0926848

>  <Q_VSA_FHYD>
0.483153

>  <Q_VSA_FNEG>
0.448118

>  <Q_VSA_FPNEG>
0.190809

>  <Q_VSA_FPOL>
0.516847

>  <Q_VSA_FPOS>
0.551882

>  <Q_VSA_FPPOS>
0.326038

>  <Q_VSA_HYD>
246.839

>  <Q_VSA_NEG>
228.94

>  <Q_VSA_PNEG>
97.4825

>  <Q_VSA_POL>
264.053

>  <Q_VSA_POS>
281.952

>  <Q_VSA_PPOS>
166.57

>  <RPC+>
0.0860215

>  <RPC->
0.0926848

>  <lip_acc>
11

>  <lip_don>
1

>  <lip_druglike>
0

>  <lip_violation>
2

>  <opr_brigid>
33

>  <opr_leadlike>
0

>  <opr_nring>
6

>  <opr_nrot>
8

>  <opr_violation>
3

>  <E>
131.867

>  <E_ang>
13.5694

>  <E_ele>
28.7681

>  <E_nb>
100.539

>  <E_oop>
0.107702

>  <E_sol>
-23.6311

>  <E_stb>
1.42097

>  <E_str>
7.52731

>  <E_strain>
0.00538953

>  <E_tor>
8.70314

>  <E_vdw>
71.7707

>  <E_rele>
0

>  <E_rnb>
1.42109e-014

>  <E_rsol>
1.42109e-014

>  <E_rvdw>
0

>  <Kier1>
30.0444

>  <Kier2>
13.749

>  <Kier3>
6.45188

>  <KierA1>
20.2962

>  <KierA2>
9.18681

>  <KierA3>
4.27815

>  <KierFlex>
4.66144

>  <logS>
-5.81198

>  <MNDO_dipole>
7.76323

>  <MNDO_E>
-156723

>  <MNDO_Eele>
-1.37467e+006

>  <MNDO_HF>
34.7098

>  <MNDO_HOMO>
-9.2814

>  <MNDO_IP>
9.2814

>  <MNDO_LUMO>
-1.03832

>  <apol>
78.6178

>  <bpol>
41.3602

>  <mr>
14.8196

>  <dipole>
2.12359

>  <dipoleX>
0.982435

>  <dipoleY>
-1.87113

>  <dipoleZ>
0.208096

>  <pmi>
15116.8

>  <pmiX>
7578.42

>  <pmiY>
6882.4

>  <pmiZ>
655.991

>  <rgyr>
5.31281

>  <a_acc>
7

>  <a_acid>
0

>  <a_base>
0

>  <a_don>
1

>  <a_hyd>
24

>  <vsa_acc>
63.9907

>  <vsa_acid>
0

>  <vsa_base>
0

>  <vsa_don>
5.68258

>  <vsa_hyd>
350.723

>  <vsa_other>
70.3387

>  <vsa_pol>
69.6733

>  <PM3_dipole>
7.29193

>  <PM3_E>
-141316

>  <PM3_Eele>
-1.36249e+006

>  <PM3_HF>
26.9781

>  <PM3_HOMO>
-9.04086

>  <PM3_IP>
9.04086

>  <PM3_LUMO>
-1.26609

>  <SlogP>
2.9865

>  <SlogP_VSA0>
10.9999

>  <SlogP_VSA1>
74.4644

>  <SlogP_VSA2>
40.6477

>  <SlogP_VSA3>
73.7583

>  <SlogP_VSA4>
54.0956

>  <SlogP_VSA5>
35.3839

>  <SlogP_VSA6>
0

>  <SlogP_VSA7>
240.205

>  <SlogP_VSA8>
0

>  <SlogP_VSA9>
5.24343

>  <SMR>
14.6255

>  <SMR_VSA0>
71.5866

>  <SMR_VSA1>
69.2592

>  <SMR_VSA2>
16.7855

>  <SMR_VSA3>
11.6146

>  <SMR_VSA4>
12.5585

>  <SMR_VSA5>
227.646

>  <SMR_VSA6>
89.9635

>  <SMR_VSA7>
35.3839

>  <ASA>
833.555

>  <ASA+>
367.953

>  <ASA->
319.285

>  <ASA_H>
571.309

>  <ASA_P>
262.247

>  <CASA+>
2806.01

>  <CASA->
2435.51

>  <DASA>
48.6681

>  <DCASA>
370.504

>  <FASA+>
0.441426

>  <FASA->
0.38304

>  <FASA_H>
0.685388

>  <FASA_P>
0.314612

>  <FCASA+>
3.36632

>  <FCASA->
2.92183

>  <VSA>
536.65

>  <TPSA>
126.31

>  <density>
0.767737

>  <vdw_area>
510.892

>  <vdw_vol>
697.588

>  <vsurf_A>
5.06041

>  <vsurf_CP>
0.111263

>  <vsurf_CW1>
2.51374

>  <vsurf_CW2>
2.047

>  <vsurf_CW3>
1.25114

>  <vsurf_CW4>
0.60485

>  <vsurf_CW5>
0.299016

>  <vsurf_CW6>
0.130144

>  <vsurf_CW7>
0.0388385

>  <vsurf_CW8>
0.0209122

>  <vsurf_D1>
1230.63

>  <vsurf_D2>
741.875

>  <vsurf_D3>
558.125

>  <vsurf_D4>
476.625

>  <vsurf_D5>
416.125

>  <vsurf_D6>
343.75

>  <vsurf_D7>
207.375

>  <vsurf_D8>
115.75

>  <vsurf_DD12>
0.5

>  <vsurf_DD13>
0.5

>  <vsurf_DD23>
0.707107

>  <vsurf_DW12>
0.866025

>  <vsurf_DW13>
1.22474

>  <vsurf_DW23>
0.5

>  <vsurf_EDmin1>
-3.14141

>  <vsurf_EDmin2>
-3.06811

>  <vsurf_EDmin3>
-3.01647

>  <vsurf_EWmin1>
-8.55948

>  <vsurf_EWmin2>
-7.82747

>  <vsurf_EWmin3>
-7.80588

>  <vsurf_G>
1.46137

>  <vsurf_HB1>
405.75

>  <vsurf_HB2>
442.125

>  <vsurf_HB3>
433.5

>  <vsurf_HB4>
192.375

>  <vsurf_HB5>
79

>  <vsurf_HB6>
31.125

>  <vsurf_HB7>
9

>  <vsurf_HB8>
4.25

>  <vsurf_HL1>
0.144681

>  <vsurf_HL2>
0.0658274

>  <vsurf_ID1>
1.58747

>  <vsurf_ID2>
1.46754

>  <vsurf_ID3>
1.56327

>  <vsurf_ID4>
1.83385

>  <vsurf_ID5>
2.10219

>  <vsurf_ID6>
2.14826

>  <vsurf_ID7>
1.42948

>  <vsurf_ID8>
0.688251

>  <vsurf_IW1>
0.230711

>  <vsurf_IW2>
1.50279

>  <vsurf_IW3>
2.53216

>  <vsurf_IW4>
3.15113

>  <vsurf_IW5>
3.50125

>  <vsurf_IW6>
3.89739

>  <vsurf_IW7>
4.72669

>  <vsurf_IW8>
5.14868

>  <vsurf_R>
1.47654

>  <vsurf_S>
769.534

>  <vsurf_V>
1136.25

>  <vsurf_W1>
1801.25

>  <vsurf_W2>
1049.13

>  <vsurf_W3>
541.25

>  <vsurf_W4>
200

>  <vsurf_W5>
80.75

>  <vsurf_W6>
31.375

>  <vsurf_W7>
9

>  <vsurf_W8>
4.25

>  <vsurf_Wp1>
1395.5

>  <vsurf_Wp2>
607

>  <vsurf_Wp3>
107.75

>  <vsurf_Wp4>
7.625

>  <vsurf_Wp5>
1.75

>  <vsurf_Wp6>
0.25

>  <vsurf_Wp7>
0

>  <vsurf_Wp8>
0

>  <dens>
1.07408

>  <glob>
0.0592253

>  <std_dim1>
4.6022

>  <std_dim2>
2.92916

>  <std_dim3>
1.12

>  <vol>
498.625

>  <logP(o/w)>
2.61012

$$$$
D19.cdx
  MOE2008           3D

 64 69  0  0  0  0  0  0  0  0999 V2000
   -6.2640    8.6050   -0.0010 C   0  0  0  0  0  0  0  0  0  0  0  0
   -7.0860    9.2930    0.1740 H   0  0  0  0  0  0  0  0  0  0  0  0
   -6.5040    7.3140    0.3000 N   0  0  0  0  0  0  0  0  0  0  0  0
   -5.5090    6.4030    0.1070 C   0  0  0  0  0  0  0  0  0  0  0  0
   -4.3050    6.8990   -0.3980 C   0  0  0  0  0  0  0  0  0  0  0  0
   -4.1500    8.2480   -0.6870 C   0  0  0  0  0  0  0  0  0  0  0  0
   -5.1410    9.1460   -0.4890 N   0  0  0  0  0  0  0  0  0  0  0  0
   -3.1200    6.2790   -0.7120 N   0  0  0  0  0  0  0  0  0  0  0  0
   -2.9650    5.2820   -0.5980 H   0  0  0  0  0  0  0  0  0  0  0  0
   -2.2220    7.1980   -1.1880 C   0  0  0  0  0  0  0  0  0  0  0  0
   -1.2310    6.8820   -1.4900 H   0  0  0  0  0  0  0  0  0  0  0  0
   -2.8320    8.4430   -1.1930 C   0  0  0  0  0  0  0  0  0  0  0  0
   -2.2240    9.6900   -1.6320 C   0  0  0  0  0  0  0  0  0  0  0  0
   -0.8000    9.6940   -2.1530 C   0  0  0  0  0  0  0  0  0  0  0  0
    0.1930   10.1410   -1.2850 N   0  0  0  0  0  0  0  0  0  0  0  0
    1.5870   10.1690   -1.7360 C   0  0  0  0  0  0  0  0  0  0  0  0
    1.6900    9.7050   -2.7210 H   0  0  0  0  0  0  0  0  0  0  0  0
    1.8670   11.2250   -1.8340 H   0  0  0  0  0  0  0  0  0  0  0  0
    2.5110    9.4730   -0.7310 C   0  0  0  0  0  0  0  0  0  0  0  0
    3.5510    9.5620   -1.0500 H   0  0  0  0  0  0  0  0  0  0  0  0
    2.2770    8.4020   -0.6910 H   0  0  0  0  0  0  0  0  0  0  0  0
    2.2980    9.9970    0.6280 N   0  0  0  0  0  0  0  0  0  0  0  0
    0.9080    9.9510    1.0870 C   0  0  0  0  0  0  0  0  0  0  0  0
    0.6430    8.8910    1.1900 H   0  0  0  0  0  0  0  0  0  0  0  0
    0.7990   10.4170    2.0720 H   0  0  0  0  0  0  0  0  0  0  0  0
   -0.0350   10.6300    0.0840 C   0  0  0  0  0  0  0  0  0  0  0  0
    0.1560   11.7100    0.0650 H   0  0  0  0  0  0  0  0  0  0  0  0
   -1.0700   10.4820    0.3990 H   0  0  0  0  0  0  0  0  0  0  0  0
    3.2820   10.4800    1.4830 C   0  0  0  0  0  0  0  0  0  0  0  0
    4.6640   10.5940    0.9750 C   0  0  0  0  0  0  0  0  0  0  0  0
   -2.7950   10.7770   -1.6000 O   0  0  0  0  0  0  0  0  0  0  0  0
   -0.6190    9.3020   -3.3000 O   0  0  0  0  0  0  0  0  0  0  0  0
    3.0930   10.8180    2.6470 O   0  0  0  0  0  0  0  0  0  0  0  0
    5.6340    9.7050    1.4440 C   0  0  0  0  0  0  0  0  0  0  0  0
    5.3730    8.9300    2.1590 H   0  0  0  0  0  0  0  0  0  0  0  0
    6.9460    9.8220    0.9860 C   0  0  0  0  0  0  0  0  0  0  0  0
    7.7100    9.1350    1.3410 H   0  0  0  0  0  0  0  0  0  0  0  0
    7.2820   10.8280    0.0770 C   0  0  0  0  0  0  0  0  0  0  0  0
    8.3070   10.9190   -0.2750 H   0  0  0  0  0  0  0  0  0  0  0  0
    6.3100   11.7250   -0.3740 C   0  0  0  0  0  0  0  0  0  0  0  0
    6.5820   12.5130   -1.0720 H   0  0  0  0  0  0  0  0  0  0  0  0
    4.9960   11.6160    0.0790 C   0  0  0  0  0  0  0  0  0  0  0  0
    4.2430   12.3220   -0.2600 H   0  0  0  0  0  0  0  0  0  0  0  0
   -5.7150    5.0300    0.4030 N   0  0  0  0  0  0  0  0  0  0  0  0
   -6.8780    4.4670    0.8650 C   0  0  0  0  0  0  0  0  0  0  0  0
   -7.7600    5.0640    1.0520 H   0  0  0  0  0  0  0  0  0  0  0  0
   -6.6340    3.1230    0.9950 C   0  0  0  0  0  0  0  0  0  0  0  0
   -7.3360    2.3770    1.3420 H   0  0  0  0  0  0  0  0  0  0  0  0
   -5.2820    2.9420    0.6020 C   0  0  0  0  0  0  0  0  0  0  0  0
   -4.7260    4.1120    0.2440 N   0  0  0  0  0  0  0  0  0  0  0  0
   -4.5190    1.6950    0.5740 C   0  0  0  0  0  0  0  0  0  0  0  0
   -5.1580    0.4650    0.3690 C   0  0  0  0  0  0  0  0  0  0  0  0
   -6.2320    0.4130    0.2070 H   0  0  0  0  0  0  0  0  0  0  0  0
   -4.4220   -0.7200    0.3490 C   0  0  0  0  0  0  0  0  0  0  0  0
   -4.9270   -1.6680    0.1810 H   0  0  0  0  0  0  0  0  0  0  0  0
   -3.0410   -0.6920    0.5410 C   0  0  0  0  0  0  0  0  0  0  0  0
   -2.4810   -1.6260    0.5220 H   0  0  0  0  0  0  0  0  0  0  0  0
   -2.3820    0.5250    0.7580 C   0  0  0  0  0  0  0  0  0  0  0  0
   -3.1280    1.7140    0.7600 C   0  0  0  0  0  0  0  0  0  0  0  0
   -2.6190    2.6640    0.9230 H   0  0  0  0  0  0  0  0  0  0  0  0
   -0.8900    0.5650    0.9510 C   0  0  0  0  0  0  0  0  0  0  0  0
   -0.4810    1.5920    1.7480 F   0  0  0  0  0  0  0  0  0  0  0  0
   -0.3930   -0.5670    1.5230 F   0  0  0  0  0  0  0  0  0  0  0  0
   -0.2200    0.7170   -0.2240 F   0  0  0  0  0  0  0  0  0  0  0  0
  1  2  1  0  0  0  0
  1  3  1  0  0  0  0
  1  7  2  0  0  0  0
  3  4  2  0  0  0  0
  4  5  1  0  0  0  0
  4 44  1  0  0  0  0
  5  6  2  0  0  0  0
  5  8  1  0  0  0  0
  6  7  1  0  0  0  0
  6 12  1  0  0  0  0
  8  9  1  0  0  0  0
  8 10  1  0  0  0  0
 10 11  1  0  0  0  0
 10 12  2  0  0  0  0
 12 13  1  0  0  0  0
 13 14  1  0  0  0  0
 13 31  2  0  0  0  0
 14 15  1  0  0  0  0
 14 32  2  0  0  0  0
 15 16  1  0  0  0  0
 15 26  1  0  0  0  0
 16 17  1  0  0  0  0
 16 18  1  0  0  0  0
 16 19  1  0  0  0  0
 19 20  1  0  0  0  0
 19 21  1  0  0  0  0
 19 22  1  0  0  0  0
 22 23  1  0  0  0  0
 22 29  1  0  0  0  0
 23 24  1  0  0  0  0
 23 25  1  0  0  0  0
 23 26  1  0  0  0  0
 26 27  1  0  0  0  0
 26 28  1  0  0  0  0
 29 30  1  0  0  0  0
 29 33  2  0  0  0  0
 30 34  1  0  0  0  0
 30 42  2  0  0  0  0
 34 35  1  0  0  0  0
 34 36  2  0  0  0  0
 36 37  1  0  0  0  0
 36 38  1  0  0  0  0
 38 39  1  0  0  0  0
 38 40  2  0  0  0  0
 40 41  1  0  0  0  0
 40 42  1  0  0  0  0
 42 43  1  0  0  0  0
 44 45  1  0  0  0  0
 44 50  1  0  0  0  0
 45 46  1  0  0  0  0
 45 47  2  0  0  0  0
 47 48  1  0  0  0  0
 47 49  1  0  0  0  0
 49 50  2  0  0  0  0
 49 51  1  0  0  0  0
 51 52  1  0  0  0  0
 51 59  2  0  0  0  0
 52 53  1  0  0  0  0
 52 54  2  0  0  0  0
 54 55  1  0  0  0  0
 54 56  1  0  0  0  0
 56 57  1  0  0  0  0
 56 58  2  0  0  0  0
 58 59  1  0  0  0  0
 58 61  1  0  0  0  0
 59 60  1  0  0  0  0
 61 62  1  0  0  0  0
 61 63  1  0  0  0  0
 61 64  1  0  0  0  0
M  END
>  <Activity>
9.4317

>  <AM1_dipole>
5.34863

>  <AM1_E>
-181634

>  <AM1_Eele>
-1.50594e+006

>  <AM1_HF>
-19.9101

>  <AM1_HOMO>
-9.34828

>  <AM1_IP>
9.34828

>  <AM1_LUMO>
-1.31581

>  <diameter>
22

>  <petitjean>
0.5

>  <petitjeanSC>
1

>  <radius>
11

>  <VDistEq>
4.21718

>  <VDistMa>
10.457

>  <weinerPath>
7077

>  <weinerPol>
72

>  <BCUT_PEOE_0>
-2.71185

>  <BCUT_PEOE_1>
-0.625065

>  <BCUT_PEOE_2>
0.675702

>  <BCUT_PEOE_3>
2.65035

>  <BCUT_SLOGP_0>
-2.86001

>  <BCUT_SLOGP_1>
-0.53808

>  <BCUT_SLOGP_2>
0.76195

>  <BCUT_SLOGP_3>
2.50304

>  <BCUT_SMR_0>
-2.43203

>  <BCUT_SMR_1>
-0.454906

>  <BCUT_SMR_2>
0.854311

>  <BCUT_SMR_3>
2.92016

>  <GCUT_PEOE_0>
-0.849377

>  <GCUT_PEOE_1>
-0.403728

>  <GCUT_PEOE_2>
0.080099

>  <GCUT_PEOE_3>
2.72576

>  <GCUT_SLOGP_0>
-0.976513

>  <GCUT_SLOGP_1>
-0.347214

>  <GCUT_SLOGP_2>
0.245971

>  <GCUT_SLOGP_3>
2.7291

>  <GCUT_SMR_0>
-0.508912

>  <GCUT_SMR_1>
-0.208026

>  <GCUT_SMR_2>
0.218237

>  <GCUT_SMR_3>
2.99991

>  <a_aro>
26

>  <a_count>
64

>  <a_IC>
115.85

>  <a_ICM>
1.81015

>  <a_nH>
22

>  <b_1rotN>
7

>  <b_1rotR>
0.148936

>  <b_ar>
27

>  <b_count>
69

>  <b_double>
3

>  <b_rotN>
8

>  <b_rotR>
0.170213

>  <b_single>
39

>  <b_triple>
0

>  <chi0v>
21.8759

>  <chi0v_C>
16.334

>  <chi1v>
12.9419

>  <chi1v_C>
7.64273

>  <chiral>
0

>  <chiral_u>
0

>  <nmol>
1

>  <reactive>
0

>  <rings>
6

>  <Weight>
573.535

>  <a_heavy>
42

>  <a_nB>
0

>  <a_nBr>
0

>  <a_nC>
29

>  <a_nCl>
0

>  <a_nF>
3

>  <a_nI>
0

>  <a_nN>
7

>  <a_nO>
3

>  <a_nP>
0

>  <a_nS>
0

>  <b_heavy>
47

>  <chi0>
29.4321

>  <chi0_C>
18.8717

>  <chi1>
20.2025

>  <chi1_C>
10.388

>  <FCharge>
0

>  <VAdjEq>
0.300203

>  <VAdjMa>
6.55459

>  <zagreb>
232

>  <balabanJ>
1.00193

>  <PEOE_PC+>
3.66755

>  <PEOE_PC->
-3.66755

>  <PEOE_RPC+>
0.11382

>  <PEOE_RPC->
0.0970237

>  <PEOE_VSA+0>
90.6782

>  <PEOE_VSA+1>
96.4243

>  <PEOE_VSA+2>
38.9014

>  <PEOE_VSA+3>
19.8096

>  <PEOE_VSA+4>
0

>  <PEOE_VSA+5>
34.3576

>  <PEOE_VSA+6>
9.0455

>  <PEOE_VSA-0>
49.0196

>  <PEOE_VSA-1>
73.5294

>  <PEOE_VSA-2>
0

>  <PEOE_VSA-3>
45.1469

>  <PEOE_VSA-4>
11.3652

>  <PEOE_VSA-5>
40.7008

>  <PEOE_VSA-6>
0.136891

>  <PEOE_VSA_FHYD>
0.812212

>  <PEOE_VSA_FNEG>
0.431923

>  <PEOE_VSA_FPNEG>
0.102536

>  <PEOE_VSA_FPOL>
0.187788

>  <PEOE_VSA_FPOS>
0.568077

>  <PEOE_VSA_FPPOS>
0.0852519

>  <PEOE_VSA_HYD>
413.51

>  <PEOE_VSA_NEG>
219.899

>  <PEOE_VSA_PNEG>
52.2028

>  <PEOE_VSA_POL>
95.6059

>  <PEOE_VSA_POS>
289.217

>  <PEOE_VSA_PPOS>
43.4031

>  <PC+>
8.428

>  <PC->
-8.429

>  <Q_PC+>
8.428

>  <Q_PC->
-8.429

>  <Q_RPC+>
0.138111

>  <Q_RPC->
0.0838771

>  <Q_VSA_FHYD>
0.447428

>  <Q_VSA_FNEG>
0.519274

>  <Q_VSA_FPNEG>
0.256729

>  <Q_VSA_FPOL>
0.552572

>  <Q_VSA_FPOS>
0.480726

>  <Q_VSA_FPPOS>
0.295843

>  <Q_VSA_HYD>
227.793

>  <Q_VSA_NEG>
264.37

>  <Q_VSA_PNEG>
130.705

>  <Q_VSA_POL>
281.323

>  <Q_VSA_POS>
244.745

>  <Q_VSA_PPOS>
150.618

>  <RPC+>
0.138111

>  <RPC->
0.0838771

>  <lip_acc>
10

>  <lip_don>
1

>  <lip_druglike>
1

>  <lip_violation>
1

>  <opr_brigid>
33

>  <opr_leadlike>
0

>  <opr_nring>
6

>  <opr_nrot>
7

>  <opr_violation>
3

>  <E>
123.977

>  <E_ang>
8.48918

>  <E_ele>
34.5933

>  <E_nb>
101.693

>  <E_oop>
0.0644956

>  <E_sol>
-23.9324

>  <E_stb>
1.18778

>  <E_str>
7.57456

>  <E_strain>
0.0121035

>  <E_tor>
4.96796

>  <E_vdw>
67.1001

>  <E_rele>
0

>  <E_rnb>
2.55795e-013

>  <E_rsol>
2.55795e-013

>  <E_rvdw>
0

>  <Kier1>
31.9611

>  <Kier2>
13.7786

>  <Kier3>
7.06202

>  <KierA1>
21.7139

>  <KierA2>
9.26554

>  <KierA3>
4.71511

>  <KierFlex>
4.79026

>  <logS>
-6.81815

>  <MNDO_dipole>
0

>  <apol>
77.4864

>  <bpol>
39.7736

>  <mr>
14.7733

>  <dipole>
1.34404

>  <dipoleX>
0.059645

>  <dipoleY>
-1.34182

>  <dipoleZ>
-0.0489746

>  <pmi>
19409.7

>  <pmiX>
8876.36

>  <pmiY>
9707.12

>  <pmiZ>
826.175

>  <rgyr>
5.8174

>  <a_acc>
6

>  <a_acid>
0

>  <a_base>
0

>  <a_don>
1

>  <a_hyd>
27

>  <vsa_acc>
61.487

>  <vsa_acid>
0

>  <vsa_base>
0

>  <vsa_don>
5.68258

>  <vsa_hyd>
353.586

>  <vsa_other>
70.3387

>  <vsa_pol>
67.1695

>  <PM3_dipole>
4.73702

>  <PM3_E>
-163974

>  <PM3_Eele>
-1.48446e+006

>  <PM3_HF>
-99.0416

>  <PM3_HOMO>
-9.27783

>  <PM3_IP>
9.27783

>  <PM3_LUMO>
-1.5436

>  <SlogP>
4.3082

>  <SlogP_VSA0>
0

>  <SlogP_VSA1>
74.4644

>  <SlogP_VSA2>
40.6477

>  <SlogP_VSA3>
73.7583

>  <SlogP_VSA4>
57.2812

>  <SlogP_VSA5>
0

>  <SlogP_VSA6>
7.75952

>  <SlogP_VSA7>
240.205

>  <SlogP_VSA8>
0

>  <SlogP_VSA9>
44.8803

>  <SMR>
14.4822

>  <SMR_VSA0>
71.5866

>  <SMR_VSA1>
103.14

>  <SMR_VSA2>
24.545

>  <SMR_VSA3>
9.55672

>  <SMR_VSA4>
12.5585

>  <SMR_VSA5>
227.646

>  <SMR_VSA6>
89.9635

>  <SMR_VSA7>
0

>  <ASA>
844.64

>  <ASA+>
340.884

>  <ASA->
406.715

>  <ASA_H>
498.555

>  <ASA_P>
346.084

>  <CASA+>
2872.97

>  <CASA->
3428.2

>  <DASA>
65.8309

>  <DCASA>
555.229

>  <FASA+>
0.403585

>  <FASA->
0.481525

>  <FASA_H>
0.590258

>  <FASA_P>
0.409742

>  <FCASA+>
3.40141

>  <FCASA->
4.05877

>  <VSA>
540.863

>  <TPSA>
117.08

>  <density>
0.823627

>  <vdw_area>
509.115

>  <vdw_vol>
696.353

>  <vsurf_A>
3.15736

>  <vsurf_CP>
0.0906163

>  <vsurf_CW1>
2.57277

>  <vsurf_CW2>
2.21383

>  <vsurf_CW3>
1.51289

>  <vsurf_CW4>
0.684832

>  <vsurf_CW5>
0.303902

>  <vsurf_CW6>
0.134216

>  <vsurf_CW7>
0.0455151

>  <vsurf_CW8>
0.0241459

>  <vsurf_D1>
1186.13

>  <vsurf_D2>
711.625

>  <vsurf_D3>
519.875

>  <vsurf_D4>
426.375

>  <vsurf_D5>
360.875

>  <vsurf_D6>
296.375

>  <vsurf_D7>
185.625

>  <vsurf_D8>
107.5

>  <vsurf_DD12>
1.11803

>  <vsurf_DD13>
0.5

>  <vsurf_DD23>
1.22474

>  <vsurf_DW12>
0.5

>  <vsurf_DW13>
0.5

>  <vsurf_DW23>
0.707107

>  <vsurf_EDmin1>
-2.86533

>  <vsurf_EDmin2>
-2.82277

>  <vsurf_EDmin3>
-2.8177

>  <vsurf_EWmin1>
-8.4011

>  <vsurf_EWmin2>
-8.31028

>  <vsurf_EWmin3>
-7.92887

>  <vsurf_G>
1.48089

>  <vsurf_HB1>
517.75

>  <vsurf_HB2>
609

>  <vsurf_HB3>
544.625

>  <vsurf_HB4>
213.5

>  <vsurf_HB5>
80.875

>  <vsurf_HB6>
32.375

>  <vsurf_HB7>
12

>  <vsurf_HB8>
5.125

>  <vsurf_HL1>
0.160856

>  <vsurf_HL2>
0.0765171

>  <vsurf_ID1>
0.467266

>  <vsurf_ID2>
0.36732

>  <vsurf_ID3>
0.377448

>  <vsurf_ID4>
0.523239

>  <vsurf_ID5>
0.726606

>  <vsurf_ID6>
0.633057

>  <vsurf_ID7>
0.441336

>  <vsurf_ID8>
0.977153

>  <vsurf_IW1>
0.35498

>  <vsurf_IW2>
0.638074

>  <vsurf_IW3>
1.02186

>  <vsurf_IW4>
1.83678

>  <vsurf_IW5>
2.82339

>  <vsurf_IW6>
3.18911

>  <vsurf_IW7>
3.17456

>  <vsurf_IW8>
3.48516

>  <vsurf_R>
1.46135

>  <vsurf_S>
784.38

>  <vsurf_V>
1146.25

>  <vsurf_W1>
1908.75

>  <vsurf_W2>
1202.5

>  <vsurf_W3>
646.875

>  <vsurf_W4>
223.125

>  <vsurf_W5>
83.625

>  <vsurf_W6>
32.625

>  <vsurf_W7>
12

>  <vsurf_W8>
5.125

>  <vsurf_Wp1>
1391

>  <vsurf_Wp2>
593.5

>  <vsurf_Wp3>
102.25

>  <vsurf_Wp4>
9.625

>  <vsurf_Wp5>
2.75

>  <vsurf_Wp6>
0.25

>  <vsurf_Wp7>
0

>  <vsurf_Wp8>
0

>  <dens>
1.15052

>  <glob>
0.0407012

>  <std_dim1>
5.33434

>  <std_dim2>
2.74698

>  <std_dim3>
1.07618

>  <vol>
498.5

>  <logP(o/w)>
3.62788

$$$$
D19.cdx
  MOE2008           3D

 60 65  0  0  0  0  0  0  0  0999 V2000
   -5.5090    1.5290    0.1700 C   0  0  0  0  0  0  0  0  0  0  0  0
   -6.2380    2.3320    0.1810 H   0  0  0  0  0  0  0  0  0  0  0  0
   -5.8940    0.3770    0.7530 N   0  0  0  0  0  0  0  0  0  0  0  0
   -5.0180   -0.6680    0.7750 C   0  0  0  0  0  0  0  0  0  0  0  0
   -3.7780   -0.4500    0.1690 C   0  0  0  0  0  0  0  0  0  0  0  0
   -3.4690    0.7720   -0.4130 C   0  0  0  0  0  0  0  0  0  0  0  0
   -4.3400    1.8050   -0.4210 N   0  0  0  0  0  0  0  0  0  0  0  0
   -2.6820   -1.2630    0.0110 N   0  0  0  0  0  0  0  0  0  0  0  0
   -2.6430   -2.2200    0.3530 H   0  0  0  0  0  0  0  0  0  0  0  0
   -1.6930   -0.5880   -0.6570 C   0  0  0  0  0  0  0  0  0  0  0  0
   -0.7520   -1.0800   -0.8710 H   0  0  0  0  0  0  0  0  0  0  0  0
   -2.1460    0.6930   -0.9360 C   0  0  0  0  0  0  0  0  0  0  0  0
   -1.3900    1.7420   -1.6070 C   0  0  0  0  0  0  0  0  0  0  0  0
    0.0470    1.4850   -2.0210 C   0  0  0  0  0  0  0  0  0  0  0  0
    1.0350    1.8760   -1.1190 N   0  0  0  0  0  0  0  0  0  0  0  0
    2.4410    1.6860   -1.4780 C   0  0  0  0  0  0  0  0  0  0  0  0
    2.7200    0.6830   -1.1330 H   0  0  0  0  0  0  0  0  0  0  0  0
    2.5560    1.7040   -2.5670 H   0  0  0  0  0  0  0  0  0  0  0  0
    3.3490    2.7370   -0.8320 C   0  0  0  0  0  0  0  0  0  0  0  0
    3.0930    3.7300   -1.2200 H   0  0  0  0  0  0  0  0  0  0  0  0
    4.3940    2.5300   -1.0820 H   0  0  0  0  0  0  0  0  0  0  0  0
    3.1860    2.7950    0.6300 N   0  0  0  0  0  0  0  0  0  0  0  0
    1.9160    2.3110    1.1740 C   0  0  0  0  0  0  0  0  0  0  0  0
    2.0590    1.2480    1.4060 H   0  0  0  0  0  0  0  0  0  0  0  0
    1.6910    2.8260    2.1140 H   0  0  0  0  0  0  0  0  0  0  0  0
    0.7560    2.4820    0.1900 C   0  0  0  0  0  0  0  0  0  0  0  0
    0.5710    3.5470    0.0070 H   0  0  0  0  0  0  0  0  0  0  0  0
   -0.1550    2.0550    0.6180 H   0  0  0  0  0  0  0  0  0  0  0  0
    4.1590    3.2420    1.5220 C   0  0  0  0  0  0  0  0  0  0  0  0
    5.3780    3.8860    0.9820 C   0  0  0  0  0  0  0  0  0  0  0  0
   -1.8310    2.8640   -1.8420 O   0  0  0  0  0  0  0  0  0  0  0  0
    0.2430    0.9550   -3.1090 O   0  0  0  0  0  0  0  0  0  0  0  0
    4.0780    3.1270    2.7420 O   0  0  0  0  0  0  0  0  0  0  0  0
    6.6260    3.3420    1.3030 C   0  0  0  0  0  0  0  0  0  0  0  0
    6.6960    2.4530    1.9240 H   0  0  0  0  0  0  0  0  0  0  0  0
    7.7850    3.9490    0.8210 C   0  0  0  0  0  0  0  0  0  0  0  0
    8.7590    3.5300    1.0620 H   0  0  0  0  0  0  0  0  0  0  0  0
    7.6960    5.1000    0.0350 C   0  0  0  0  0  0  0  0  0  0  0  0
    8.6020    5.5720   -0.3380 H   0  0  0  0  0  0  0  0  0  0  0  0
    6.4500    5.6530   -0.2640 C   0  0  0  0  0  0  0  0  0  0  0  0
    6.3870    6.5570   -0.8650 H   0  0  0  0  0  0  0  0  0  0  0  0
    5.2860    5.0520    0.2160 C   0  0  0  0  0  0  0  0  0  0  0  0
    4.3200    5.5010    0.0010 H   0  0  0  0  0  0  0  0  0  0  0  0
   -5.3650   -1.9020    1.3890 N   0  0  0  0  0  0  0  0  0  0  0  0
   -6.5600   -2.2010    1.9930 C   0  0  0  0  0  0  0  0  0  0  0  0
   -7.3650   -1.4800    2.0430 H   0  0  0  0  0  0  0  0  0  0  0  0
   -6.4490   -3.4880    2.4560 C   0  0  0  0  0  0  0  0  0  0  0  0
   -7.2080   -4.0360    2.9970 H   0  0  0  0  0  0  0  0  0  0  0  0
   -5.1420   -3.9180    2.0920 C   0  0  0  0  0  0  0  0  0  0  0  0
   -4.4920   -2.9400    1.4340 N   0  0  0  0  0  0  0  0  0  0  0  0
   -4.5120   -5.2220    2.3640 C   0  0  0  0  0  0  0  0  0  0  0  0
   -5.3110   -6.3480    2.5710 C   0  0  0  0  0  0  0  0  0  0  0  0
   -6.3940   -6.2970    2.5190 H   0  0  0  0  0  0  0  0  0  0  0  0
   -4.7030   -7.5750    2.8330 C   0  0  0  0  0  0  0  0  0  0  0  0
   -5.3110   -8.4610    2.9920 H   0  0  0  0  0  0  0  0  0  0  0  0
   -3.3190   -7.6550    2.8870 C   0  0  0  0  0  0  0  0  0  0  0  0
   -2.8190   -8.5950    3.0890 H   0  0  0  0  0  0  0  0  0  0  0  0
   -2.5950   -6.4970    2.6700 C   0  0  0  0  0  0  0  0  0  0  0  0
   -1.5100   -6.5040    2.7000 H   0  0  0  0  0  0  0  0  0  0  0  0
   -3.1540   -5.2940    2.4110 N   0  0  0  0  0  0  0  0  0  0  0  0
  1  2  1  0  0  0  0
  1  3  1  0  0  0  0
  1  7  2  0  0  0  0
  3  4  2  0  0  0  0
  4  5  1  0  0  0  0
  4 44  1  0  0  0  0
  5  6  2  0  0  0  0
  5  8  1  0  0  0  0
  6  7  1  0  0  0  0
  6 12  1  0  0  0  0
  8  9  1  0  0  0  0
  8 10  1  0  0  0  0
 10 11  1  0  0  0  0
 10 12  2  0  0  0  0
 12 13  1  0  0  0  0
 13 14  1  0  0  0  0
 13 31  2  0  0  0  0
 14 15  1  0  0  0  0
 14 32  2  0  0  0  0
 15 16  1  0  0  0  0
 15 26  1  0  0  0  0
 16 17  1  0  0  0  0
 16 18  1  0  0  0  0
 16 19  1  0  0  0  0
 19 20  1  0  0  0  0
 19 21  1  0  0  0  0
 19 22  1  0  0  0  0
 22 23  1  0  0  0  0
 22 29  1  0  0  0  0
 23 24  1  0  0  0  0
 23 25  1  0  0  0  0
 23 26  1  0  0  0  0
 26 27  1  0  0  0  0
 26 28  1  0  0  0  0
 29 30  1  0  0  0  0
 29 33  2  0  0  0  0
 30 34  1  0  0  0  0
 30 42  2  0  0  0  0
 34 35  1  0  0  0  0
 34 36  2  0  0  0  0
 36 37  1  0  0  0  0
 36 38  1  0  0  0  0
 38 39  1  0  0  0  0
 38 40  2  0  0  0  0
 40 41  1  0  0  0  0
 40 42  1  0  0  0  0
 42 43  1  0  0  0  0
 44 45  1  0  0  0  0
 44 50  1  0  0  0  0
 45 46  1  0  0  0  0
 45 47  2  0  0  0  0
 47 48  1  0  0  0  0
 47 49  1  0  0  0  0
 49 50  2  0  0  0  0
 49 51  1  0  0  0  0
 51 52  1  0  0  0  0
 51 60  2  0  0  0  0
 52 53  1  0  0  0  0
 52 54  2  0  0  0  0
 54 55  1  0  0  0  0
 54 56  1  0  0  0  0
 56 57  1  0  0  0  0
 56 58  2  0  0  0  0
 58 59  1  0  0  0  0
 58 60  1  0  0  0  0
M  END
>  <Activity>
9.8239

>  <AM1_dipole>
6.10633

>  <AM1_E>
-146909

>  <AM1_Eele>
-1.23116e+006

>  <AM1_HF>
149.439

>  <AM1_HOMO>
-9.22285

>  <AM1_IP>
9.22285

>  <AM1_LUMO>
-1.18653

>  <diameter>
21

>  <petitjean>
0.47619

>  <petitjeanSC>
0.909091

>  <radius>
11

>  <VDistEq>
4.0966

>  <VDistMa>
10.1689

>  <weinerPath>
5322

>  <weinerPol>
64

>  <BCUT_PEOE_0>
-2.71185

>  <BCUT_PEOE_1>
-0.631312

>  <BCUT_PEOE_2>
0.685776

>  <BCUT_PEOE_3>
2.65035

>  <BCUT_SLOGP_0>
-2.86001

>  <BCUT_SLOGP_1>
-0.545993

>  <BCUT_SLOGP_2>
0.766744

>  <BCUT_SLOGP_3>
2.50303

>  <BCUT_SMR_0>
-2.43203

>  <BCUT_SMR_1>
-0.441673

>  <BCUT_SMR_2>
0.861943

>  <BCUT_SMR_3>
2.92016

>  <GCUT_PEOE_0>
-0.84936

>  <GCUT_PEOE_1>
-0.404663

>  <GCUT_PEOE_2>
0.0823251

>  <GCUT_PEOE_3>
2.70481

>  <GCUT_SLOGP_0>
-0.976513

>  <GCUT_SLOGP_1>
-0.34892

>  <GCUT_SLOGP_2>
0.153799

>  <GCUT_SLOGP_3>
2.68586

>  <GCUT_SMR_0>
-0.508911

>  <GCUT_SMR_1>
-0.210505

>  <GCUT_SMR_2>
0.240875

>  <GCUT_SMR_3>
2.97831

>  <a_aro>
26

>  <a_count>
60

>  <a_IC>
99.1691

>  <a_ICM>
1.65282

>  <a_nH>
22

>  <b_1rotN>
7

>  <b_1rotR>
0.162791

>  <b_ar>
27

>  <b_count>
65

>  <b_double>
3

>  <b_rotN>
7

>  <b_rotR>
0.162791

>  <b_single>
35

>  <b_triple>
0

>  <chi0v>
20.1892

>  <chi0v_C>
15.334

>  <chi1v>
12.074

>  <chi1v_C>
6.86004

>  <chiral>
0

>  <chiral_u>
0

>  <nmol>
1

>  <reactive>
0

>  <rings>
6

>  <Weight>
506.526

>  <a_heavy>
38

>  <a_nB>
0

>  <a_nBr>
0

>  <a_nC>
27

>  <a_nCl>
0

>  <a_nF>
0

>  <a_nI>
0

>  <a_nN>
8

>  <a_nO>
3

>  <a_nP>
0

>  <a_nS>
0

>  <b_heavy>
43

>  <chi0>
26.0619

>  <chi0_C>
17.7943

>  <chi1>
18.5974

>  <chi1_C>
9.37457

>  <FCharge>
0

>  <VAdjEq>
0.325683

>  <VAdjMa>
6.42626

>  <zagreb>
208

>  <balabanJ>
1.00508

>  <PEOE_PC+>
3.35201

>  <PEOE_PC->
-3.35201

>  <PEOE_RPC+>
0.088052

>  <PEOE_RPC->
0.106157

>  <PEOE_VSA+0>
105.216

>  <PEOE_VSA+1>
94.2158

>  <PEOE_VSA+2>
45.601

>  <PEOE_VSA+3>
19.8096

>  <PEOE_VSA+4>
0

>  <PEOE_VSA+5>
34.3576

>  <PEOE_VSA+6>
0

>  <PEOE_VSA-0>
61.2745

>  <PEOE_VSA-1>
49.0196

>  <PEOE_VSA-2>
0

>  <PEOE_VSA-3>
9.42104

>  <PEOE_VSA-4>
11.3652

>  <PEOE_VSA-5>
46.3833

>  <PEOE_VSA-6>
0.136891

>  <PEOE_VSA_FHYD>
0.806537

>  <PEOE_VSA_FNEG>
0.372484

>  <PEOE_VSA_FPNEG>
0.121404

>  <PEOE_VSA_FPOL>
0.193463

>  <PEOE_VSA_FPOS>
0.627516

>  <PEOE_VSA_FPPOS>
0.0720587

>  <PEOE_VSA_HYD>
384.557

>  <PEOE_VSA_NEG>
177.601

>  <PEOE_VSA_PNEG>
57.8854

>  <PEOE_VSA_POL>
92.243

>  <PEOE_VSA_POS>
299.2

>  <PEOE_VSA_PPOS>
34.3576

>  <PC+>
7.734

>  <PC->
-7.735

>  <Q_PC+>
7.734

>  <Q_PC->
-7.735

>  <Q_RPC+>
0.0848203

>  <Q_RPC->
0.0914027

>  <Q_VSA_FHYD>
0.477908

>  <Q_VSA_FNEG>
0.461123

>  <Q_VSA_FPNEG>
0.211119

>  <Q_VSA_FPOL>
0.522092

>  <Q_VSA_FPOS>
0.538877

>  <Q_VSA_FPPOS>
0.310973

>  <Q_VSA_HYD>
227.867

>  <Q_VSA_NEG>
219.864

>  <Q_VSA_PNEG>
100.661

>  <Q_VSA_POL>
248.933

>  <Q_VSA_POS>
256.936

>  <Q_VSA_PPOS>
148.272

>  <RPC+>
0.0848203

>  <RPC->
0.0914027

>  <lip_acc>
11

>  <lip_don>
1

>  <lip_druglike>
0

>  <lip_violation>
2

>  <opr_brigid>
33

>  <opr_leadlike>
0

>  <opr_nring>
6

>  <opr_nrot>
7

>  <opr_violation>
3

>  <E>
122.576

>  <E_ang>
7.81557

>  <E_ele>
35.8377

>  <E_nb>
100.873

>  <E_oop>
0.0694354

>  <E_sol>
-27.1188

>  <E_stb>
1.47405

>  <E_str>
7.15157

>  <E_strain>
0.00392057

>  <E_tor>
5.19288

>  <E_vdw>
65.0352

>  <E_rele>
0

>  <E_rnb>
-8.52651e-014

>  <E_rsol>
-8.52651e-014

>  <E_rvdw>
0

>  <Kier1>
28.1352

>  <Kier2>
12.8869

>  <Kier3>
6.13304

>  <KierA1>
18.5143

>  <KierA2>
8.37574

>  <KierA3>
3.9517

>  <KierFlex>
4.08082

>  <logS>
-4.47226

>  <MNDO_dipole>
4.71637

>  <MNDO_E>
-147194

>  <MNDO_Eele>
-1.21884e+006

>  <MNDO_HF>
80.3324

>  <MNDO_HOMO>
-9.30298

>  <MNDO_IP>
9.30298

>  <MNDO_LUMO>
-1.01451

>  <apol>
73.3954

>  <bpol>
37.4846

>  <mr>
13.9782

>  <dipole>
1.38402

>  <dipoleX>
-0.0323119

>  <dipoleY>
-1.33061

>  <dipoleZ>
0.379389

>  <pmi>
17406.2

>  <pmiX>
9532.96

>  <pmiY>
6630.69

>  <pmiZ>
1242.56

>  <rgyr>
5.86207

>  <a_acc>
7

>  <a_acid>
0

>  <a_base>
0

>  <a_don>
1

>  <a_hyd>
22

>  <vsa_acc>
67.1695

>  <vsa_acid>
0

>  <vsa_base>
0

>  <vsa_don>
5.68258

>  <vsa_hyd>
315.588

>  <vsa_other>
70.3387

>  <vsa_pol>
72.8521

>  <PM3_dipole>
4.95998

>  <PM3_E>
-131757

>  <PM3_Eele>
-1.20368e+006

>  <PM3_HF>
86.7514

>  <PM3_HOMO>
-9.11869

>  <PM3_IP>
9.11869

>  <PM3_LUMO>
-1.36523

>  <SlogP>
2.3729

>  <SlogP_VSA0>
0

>  <SlogP_VSA1>
91.25

>  <SlogP_VSA2>
40.6477

>  <SlogP_VSA3>
73.7583

>  <SlogP_VSA4>
54.0956

>  <SlogP_VSA5>
0

>  <SlogP_VSA6>
0

>  <SlogP_VSA7>
239.347

>  <SlogP_VSA8>
0

>  <SlogP_VSA9>
0

>  <SMR>
13.7498

>  <SMR_VSA0>
71.5866

>  <SMR_VSA1>
75.0448

>  <SMR_VSA2>
16.7855

>  <SMR_VSA3>
6.37115

>  <SMR_VSA4>
12.1297

>  <SMR_VSA5>
227.217

>  <SMR_VSA6>
89.9635

>  <SMR_VSA7>
0

>  <ASA>
806.322

>  <ASA+>
391.437

>  <ASA->
314.624

>  <ASA_H>
537.791

>  <ASA_P>
268.531

>  <CASA+>
3027.38

>  <CASA->
2433.62

>  <DASA>
76.8131

>  <DCASA>
593.758

>  <FASA+>
0.48546

>  <FASA->
0.390197

>  <FASA_H>
0.666968

>  <FASA_P>
0.333032

>  <FCASA+>
3.75455

>  <FCASA->
3.01817

>  <VSA>
504.528

>  <TPSA>
129.97

>  <density>
0.77519

>  <vdw_area>
476.8

>  <vdw_vol>
653.422

>  <vsurf_A>
2.41175

>  <vsurf_CP>
0.0831186

>  <vsurf_CW1>
2.60749

>  <vsurf_CW2>
2.10641

>  <vsurf_CW3>
1.33164

>  <vsurf_CW4>
0.643464

>  <vsurf_CW5>
0.337708

>  <vsurf_CW6>
0.167415

>  <vsurf_CW7>
0.0698138

>  <vsurf_CW8>
0.0426476

>  <vsurf_D1>
1207.75

>  <vsurf_D2>
711.625

>  <vsurf_D3>
528.75

>  <vsurf_D4>
447

>  <vsurf_D5>
383.5

>  <vsurf_D6>
316.5

>  <vsurf_D7>
191.75

>  <vsurf_D8>
114.875

>  <vsurf_DD12>
1.11803

>  <vsurf_DD13>
0.707107

>  <vsurf_DD23>
1.65831

>  <vsurf_DW12>
0.5

>  <vsurf_DW13>
0.5

>  <vsurf_DW23>
1

>  <vsurf_EDmin1>
-2.85865

>  <vsurf_EDmin2>
-2.83231

>  <vsurf_EDmin3>
-2.81122

>  <vsurf_EWmin1>
-10.0544

>  <vsurf_EWmin2>
-9.77438

>  <vsurf_EWmin3>
-9.42339

>  <vsurf_G>
1.45432

>  <vsurf_HB1>
406.125

>  <vsurf_HB2>
449.125

>  <vsurf_HB3>
447.375

>  <vsurf_HB4>
201.75

>  <vsurf_HB5>
89.625

>  <vsurf_HB6>
39.875

>  <vsurf_HB7>
16.75

>  <vsurf_HB8>
9.375

>  <vsurf_HL1>
0.172104

>  <vsurf_HL2>
0.0892058

>  <vsurf_ID1>
0.983107

>  <vsurf_ID2>
0.927563

>  <vsurf_ID3>
0.96635

>  <vsurf_ID4>
1.10687

>  <vsurf_ID5>
1.23222

>  <vsurf_ID6>
1.2377

>  <vsurf_ID7>
1.01072

>  <vsurf_ID8>
0.962835

>  <vsurf_IW1>
0.0676627

>  <vsurf_IW2>
0.706375

>  <vsurf_IW3>
1.23344

>  <vsurf_IW4>
1.44216

>  <vsurf_IW5>
1.49532

>  <vsurf_IW6>
1.44362

>  <vsurf_IW7>
1.85878

>  <vsurf_IW8>
1.82201

>  <vsurf_R>
1.45497

>  <vsurf_S>
736.442

>  <vsurf_V>
1071.5

>  <vsurf_W1>
1810.88

>  <vsurf_W2>
1068.13

>  <vsurf_W3>
556.875

>  <vsurf_W4>
209.625

>  <vsurf_W5>
91

>  <vsurf_W6>
39.875

>  <vsurf_W7>
16.75

>  <vsurf_W8>
9.375

>  <vsurf_Wp1>
1404.75

>  <vsurf_Wp2>
619

>  <vsurf_Wp3>
109.5

>  <vsurf_Wp4>
7.875

>  <vsurf_Wp5>
1.375

>  <vsurf_Wp6>
0

>  <vsurf_Wp7>
0

>  <vsurf_Wp8>
0

>  <dens>
1.08726

>  <glob>
0.038396

>  <std_dim1>
5.70984

>  <std_dim2>
2.31112

>  <std_dim3>
1.11884

>  <vol>
465.875

>  <logP(o/w)>
1.58065

$$$$
D19.cdx
  MOE2008           3D

 51 55  0  0  0  0  0  0  0  0999 V2000
   -5.5710   -7.0230    0.6740 C   0  0  0  0  0  0  0  0  0  0  0  0
   -6.3940   -6.3380    0.8480 H   0  0  0  0  0  0  0  0  0  0  0  0
   -5.8780   -8.1540    0.0070 N   0  0  0  0  0  0  0  0  0  0  0  0
   -4.8840   -9.0530   -0.2440 C   0  0  0  0  0  0  0  0  0  0  0  0
   -3.6110   -8.7130    0.2210 C   0  0  0  0  0  0  0  0  0  0  0  0
   -3.3870   -7.5260    0.9040 C   0  0  0  0  0  0  0  0  0  0  0  0
   -4.3780   -6.6410    1.1480 N   0  0  0  0  0  0  0  0  0  0  0  0
   -2.4060   -9.3690    0.1390 N   0  0  0  0  0  0  0  0  0  0  0  0
   -2.2900  -10.2690   -0.3170 H   0  0  0  0  0  0  0  0  0  0  0  0
   -1.4300   -8.6310    0.7540 C   0  0  0  0  0  0  0  0  0  0  0  0
   -0.4130   -9.0030    0.7910 H   0  0  0  0  0  0  0  0  0  0  0  0
   -2.0050   -7.4710    1.2510 C   0  0  0  0  0  0  0  0  0  0  0  0
   -1.3060   -6.4210    1.9770 C   0  0  0  0  0  0  0  0  0  0  0  0
    0.1820   -6.5600    2.2360 C   0  0  0  0  0  0  0  0  0  0  0  0
    1.0410   -5.8520    1.4010 N   0  0  0  0  0  0  0  0  0  0  0  0
    2.4870   -5.9590    1.5910 C   0  0  0  0  0  0  0  0  0  0  0  0
    2.8330   -4.9780    1.9400 H   0  0  0  0  0  0  0  0  0  0  0  0
    2.7300   -6.6910    2.3670 H   0  0  0  0  0  0  0  0  0  0  0  0
    3.1990   -6.3290    0.2830 C   0  0  0  0  0  0  0  0  0  0  0  0
    2.9410   -7.3530   -0.0100 H   0  0  0  0  0  0  0  0  0  0  0  0
    4.2770   -6.2830    0.4480 H   0  0  0  0  0  0  0  0  0  0  0  0
    2.7790   -5.4530   -0.8240 N   0  0  0  0  0  0  0  0  0  0  0  0
    1.3280   -5.3240   -0.9990 C   0  0  0  0  0  0  0  0  0  0  0  0
    1.0850   -4.5880   -1.7720 H   0  0  0  0  0  0  0  0  0  0  0  0
    0.9700   -6.3000   -1.3500 H   0  0  0  0  0  0  0  0  0  0  0  0
    0.6240   -4.9570    0.3130 C   0  0  0  0  0  0  0  0  0  0  0  0
   -0.4570   -4.9740    0.1660 H   0  0  0  0  0  0  0  0  0  0  0  0
    0.9030   -3.9410    0.6170 H   0  0  0  0  0  0  0  0  0  0  0  0
    3.6290   -4.7670   -1.6870 C   0  0  0  0  0  0  0  0  0  0  0  0
    5.0790   -5.0610   -1.6440 C   0  0  0  0  0  0  0  0  0  0  0  0
   -1.8440   -5.4010    2.3960 O   0  0  0  0  0  0  0  0  0  0  0  0
    0.5290   -7.3050    3.1460 O   0  0  0  0  0  0  0  0  0  0  0  0
    3.2600   -3.9280   -2.5040 O   0  0  0  0  0  0  0  0  0  0  0  0
    5.5480   -6.3440   -1.9490 C   0  0  0  0  0  0  0  0  0  0  0  0
    4.8550   -7.1410   -2.2050 H   0  0  0  0  0  0  0  0  0  0  0  0
    6.9200   -6.5950   -1.9300 C   0  0  0  0  0  0  0  0  0  0  0  0
    7.2940   -7.5890   -2.1600 H   0  0  0  0  0  0  0  0  0  0  0  0
    7.8140   -5.5660   -1.6260 C   0  0  0  0  0  0  0  0  0  0  0  0
    8.8830   -5.7640   -1.6160 H   0  0  0  0  0  0  0  0  0  0  0  0
    7.3420   -4.2820   -1.3460 C   0  0  0  0  0  0  0  0  0  0  0  0
    8.0440   -3.4830   -1.1230 H   0  0  0  0  0  0  0  0  0  0  0  0
    5.9720   -4.0230   -1.3610 C   0  0  0  0  0  0  0  0  0  0  0  0
    5.6030   -3.0220   -1.1560 H   0  0  0  0  0  0  0  0  0  0  0  0
   -5.1450  -10.2650   -0.9380 N   0  0  0  0  0  0  0  0  0  0  0  0
   -6.3590  -10.6770   -1.4370 C   0  0  0  0  0  0  0  0  0  0  0  0
   -7.2460  -10.0670   -1.3290 H   0  0  0  0  0  0  0  0  0  0  0  0
   -6.1530  -11.9030   -2.0210 C   0  0  0  0  0  0  0  0  0  0  0  0
   -6.8890  -12.5230   -2.5140 H   0  0  0  0  0  0  0  0  0  0  0  0
   -4.7850  -12.1590   -1.8310 C   0  0  0  0  0  0  0  0  0  0  0  0
   -4.2160  -13.0250   -2.1430 H   0  0  0  0  0  0  0  0  0  0  0  0
   -4.1600  -11.1760   -1.1800 N   0  0  0  0  0  0  0  0  0  0  0  0
  1  2  1  0  0  0  0
  1  3  1  0  0  0  0
  1  7  2  0  0  0  0
  3  4  2  0  0  0  0
  4  5  1  0  0  0  0
  4 44  1  0  0  0  0
  5  6  2  0  0  0  0
  5  8  1  0  0  0  0
  6  7  1  0  0  0  0
  6 12  1  0  0  0  0
  8  9  1  0  0  0  0
  8 10  1  0  0  0  0
 10 11  1  0  0  0  0
 10 12  2  0  0  0  0
 12 13  1  0  0  0  0
 13 14  1  0  0  0  0
 13 31  2  0  0  0  0
 14 15  1  0  0  0  0
 14 32  2  0  0  0  0
 15 16  1  0  0  0  0
 15 26  1  0  0  0  0
 16 17  1  0  0  0  0
 16 18  1  0  0  0  0
 16 19  1  0  0  0  0
 19 20  1  0  0  0  0
 19 21  1  0  0  0  0
 19 22  1  0  0  0  0
 22 23  1  0  0  0  0
 22 29  1  0  0  0  0
 23 24  1  0  0  0  0
 23 25  1  0  0  0  0
 23 26  1  0  0  0  0
 26 27  1  0  0  0  0
 26 28  1  0  0  0  0
 29 30  1  0  0  0  0
 29 33  2  0  0  0  0
 30 34  1  0  0  0  0
 30 42  2  0  0  0  0
 34 35  1  0  0  0  0
 34 36  2  0  0  0  0
 36 37  1  0  0  0  0
 36 38  1  0  0  0  0
 38 39  1  0  0  0  0
 38 40  2  0  0  0  0
 40 41  1  0  0  0  0
 40 42  1  0  0  0  0
 42 43  1  0  0  0  0
 44 45  1  0  0  0  0
 44 51  1  0  0  0  0
 45 46  1  0  0  0  0
 45 47  2  0  0  0  0
 47 48  1  0  0  0  0
 47 49  1  0  0  0  0
 49 50  1  0  0  0  0
 49 51  2  0  0  0  0
M  END
>  <Activity>
10.6989

>  <AM1_dipole>
6.20451

>  <AM1_E>
-126439

>  <AM1_Eele>
-988512

>  <AM1_HF>
109.226

>  <AM1_HOMO>
-9.36599

>  <AM1_IP>
9.36599

>  <AM1_LUMO>
-1.10629

>  <diameter>
17

>  <petitjean>
0.470588

>  <petitjeanSC>
0.888889

>  <radius>
9

>  <VDistEq>
3.84504

>  <VDistMa>
9.6768

>  <weinerPath>
3225

>  <weinerPol>
53

>  <BCUT_PEOE_0>
-2.71185

>  <BCUT_PEOE_1>
-0.638465

>  <BCUT_PEOE_2>
0.695171

>  <BCUT_PEOE_3>
2.65035

>  <BCUT_SLOGP_0>
-2.86001

>  <BCUT_SLOGP_1>
-0.55265

>  <BCUT_SLOGP_2>
0.771979

>  <BCUT_SLOGP_3>
2.50303

>  <BCUT_SMR_0>
-2.43203

>  <BCUT_SMR_1>
-0.461134

>  <BCUT_SMR_2>
0.863595

>  <BCUT_SMR_3>
2.92016

>  <GCUT_PEOE_0>
-0.849418

>  <GCUT_PEOE_1>
-0.409464

>  <GCUT_PEOE_2>
0.0884801

>  <GCUT_PEOE_3>
2.67163

>  <GCUT_SLOGP_0>
-0.976513

>  <GCUT_SLOGP_1>
-0.352395

>  <GCUT_SLOGP_2>
0.164651

>  <GCUT_SLOGP_3>
2.63512

>  <GCUT_SMR_0>
-0.508911

>  <GCUT_SMR_1>
-0.215533

>  <GCUT_SMR_2>
0.241668

>  <GCUT_SMR_3>
2.94054

>  <a_aro>
20

>  <a_count>
51

>  <a_IC>
86.0692

>  <a_ICM>
1.68763

>  <a_nH>
19

>  <b_1rotN>
6

>  <b_1rotR>
0.166667

>  <b_ar>
21

>  <b_count>
55

>  <b_double>
3

>  <b_rotN>
6

>  <b_rotR>
0.166667

>  <b_single>
31

>  <b_triple>
0

>  <chi0v>
17.01

>  <chi0v_C>
12.6019

>  <chi1v>
10.1328

>  <chi1v_C>
5.36603

>  <chiral>
0

>  <chiral_u>
0

>  <nmol>
1

>  <reactive>
0

>  <rings>
5

>  <Weight>
429.44

>  <a_heavy>
32

>  <a_nB>
0

>  <a_nBr>
0

>  <a_nC>
22

>  <a_nCl>
0

>  <a_nF>
0

>  <a_nI>
0

>  <a_nN>
7

>  <a_nO>
3

>  <a_nP>
0

>  <a_nS>
0

>  <b_heavy>
36

>  <chi0>
22.0788

>  <chi0_C>
14.5183

>  <chi1>
15.631

>  <chi1_C>
7.22474

>  <FCharge>
0

>  <VAdjEq>
0.367089

>  <VAdjMa>
6.16993

>  <zagreb>
174

>  <balabanJ>
1.13766

>  <PEOE_PC+>
2.98273

>  <PEOE_PC->
-2.98273

>  <PEOE_RPC+>
0.0989534

>  <PEOE_RPC->
0.1193

>  <PEOE_VSA+0>
105.216

>  <PEOE_VSA+1>
74.7201

>  <PEOE_VSA+2>
38.9014

>  <PEOE_VSA+3>
19.8096

>  <PEOE_VSA+4>
0

>  <PEOE_VSA+5>
34.3576

>  <PEOE_VSA+6>
0

>  <PEOE_VSA-0>
36.7647

>  <PEOE_VSA-1>
36.7647

>  <PEOE_VSA-2>
0

>  <PEOE_VSA-3>
9.42104

>  <PEOE_VSA-4>
11.3652

>  <PEOE_VSA-5>
40.7008

>  <PEOE_VSA-6>
0.136891

>  <PEOE_VSA_FHYD>
0.787924

>  <PEOE_VSA_FNEG>
0.33113

>  <PEOE_VSA_FPNEG>
0.127899

>  <PEOE_VSA_FPOL>
0.212076

>  <PEOE_VSA_FPOS>
0.66887

>  <PEOE_VSA_FPPOS>
0.0841773

>  <PEOE_VSA_HYD>
321.597

>  <PEOE_VSA_NEG>
135.153

>  <PEOE_VSA_PNEG>
52.2028

>  <PEOE_VSA_POL>
86.5604

>  <PEOE_VSA_POS>
273.004

>  <PEOE_VSA_PPOS>
34.3576

>  <PC+>
6.664

>  <PC->
-6.665

>  <Q_PC+>
6.664

>  <Q_PC->
-6.665

>  <Q_RPC+>
0.0984394

>  <Q_RPC->
0.106077

>  <Q_VSA_FHYD>
0.436855

>  <Q_VSA_FNEG>
0.434676

>  <Q_VSA_FPNEG>
0.232701

>  <Q_VSA_FPOL>
0.563145

>  <Q_VSA_FPOS>
0.565324

>  <Q_VSA_FPPOS>
0.330443

>  <Q_VSA_HYD>
178.306

>  <Q_VSA_NEG>
177.416

>  <Q_VSA_PNEG>
94.9788

>  <Q_VSA_POL>
229.852

>  <Q_VSA_POS>
230.741

>  <Q_VSA_PPOS>
134.873

>  <RPC+>
0.0984394

>  <RPC->
0.106077

>  <lip_acc>
10

>  <lip_don>
1

>  <lip_druglike>
1

>  <lip_violation>
0

>  <opr_brigid>
27

>  <opr_leadlike>
0

>  <opr_nring>
5

>  <opr_nrot>
6

>  <opr_violation>
2

>  <E>
93.4808

>  <E_ang>
8.02882

>  <E_ele>
26.598

>  <E_nb>
76.6043

>  <E_oop>
0.0393127

>  <E_sol>
-27.6498

>  <E_stb>
1.17568

>  <E_str>
5.778

>  <E_strain>
0.00545715

>  <E_tor>
1.85472

>  <E_vdw>
50.0062

>  <E_rele>
0

>  <E_rnb>
0

>  <E_rsol>
0

>  <E_rvdw>
0

>  <Kier1>
23.7284

>  <Kier2>
10.7266

>  <Kier3>
5.03472

>  <KierA1>
15.6809

>  <KierA2>
6.98536

>  <KierA3>
3.24481

>  <KierFlex>
3.42303

>  <logS>
-3.36642

>  <MNDO_dipole>
5.88638

>  <MNDO_E>
-126709

>  <MNDO_Eele>
-980435

>  <MNDO_HF>
50.2098

>  <MNDO_HOMO>
-9.35162

>  <MNDO_IP>
9.35162

>  <MNDO_LUMO>
-1.05185

>  <apol>
61.4951

>  <bpol>
32.8849

>  <mr>
11.6589

>  <dipole>
1.4945

>  <dipoleX>
0.478035

>  <dipoleY>
-1.26604

>  <dipoleZ>
-0.63417

>  <pmi>
11187

>  <pmiX>
7959.71

>  <pmiY>
2212.87

>  <pmiZ>
1014.47

>  <rgyr>
5.10395

>  <a_acc>
6

>  <a_acid>
0

>  <a_base>
0

>  <a_don>
1

>  <a_hyd>
17

>  <vsa_acc>
61.487

>  <vsa_acid>
0

>  <vsa_base>
0

>  <vsa_don>
5.68258

>  <vsa_hyd>
254.764

>  <vsa_other>
70.3387

>  <vsa_pol>
67.1695

>  <PM3_dipole>
5.64774

>  <PM3_E>
-113303

>  <PM3_Eele>
-975758

>  <PM3_HF>
34.471

>  <PM3_HOMO>
-9.27682

>  <PM3_IP>
9.27682

>  <PM3_LUMO>
-1.36659

>  <SlogP>
1.3109

>  <SlogP_VSA0>
0

>  <SlogP_VSA1>
74.4644

>  <SlogP_VSA2>
40.6477

>  <SlogP_VSA3>
73.7583

>  <SlogP_VSA4>
54.0956

>  <SlogP_VSA5>
0

>  <SlogP_VSA6>
0

>  <SlogP_VSA7>
180.904

>  <SlogP_VSA8>
0

>  <SlogP_VSA9>
0

>  <SMR>
11.4267

>  <SMR_VSA0>
71.5866

>  <SMR_VSA1>
58.2593

>  <SMR_VSA2>
16.7855

>  <SMR_VSA3>
6.37115

>  <SMR_VSA4>
6.61619

>  <SMR_VSA5>
174.288

>  <SMR_VSA6>
89.9635

>  <SMR_VSA7>
0

>  <ASA>
695.842

>  <ASA+>
336.443

>  <ASA->
262.285

>  <ASA_H>
445.431

>  <ASA_P>
250.411

>  <CASA+>
2242.06

>  <CASA->
1748.13

>  <DASA>
74.1579

>  <DCASA>
493.926

>  <FASA+>
0.483505

>  <FASA->
0.376932

>  <FASA_H>
0.640132

>  <FASA_P>
0.359868

>  <FCASA+>
3.22208

>  <FCASA->
2.51225

>  <VSA>
425.256

>  <TPSA>
117.08

>  <density>
0.784332

>  <vdw_area>
408.158

>  <vdw_vol>
547.523

>  <vsurf_A>
3.16917

>  <vsurf_CP>
0.0830413

>  <vsurf_CW1>
2.65705

>  <vsurf_CW2>
2.14042

>  <vsurf_CW3>
1.45883

>  <vsurf_CW4>
0.707688

>  <vsurf_CW5>
0.354385

>  <vsurf_CW6>
0.158122

>  <vsurf_CW7>
0.0572523

>  <vsurf_CW8>
0.0285679

>  <vsurf_D1>
968.25

>  <vsurf_D2>
568.625

>  <vsurf_D3>
428.25

>  <vsurf_D4>
359.875

>  <vsurf_D5>
309.5

>  <vsurf_D6>
247.875

>  <vsurf_D7>
143.625

>  <vsurf_D8>
85.5

>  <vsurf_DD12>
0.866025

>  <vsurf_DD13>
0.5

>  <vsurf_DD23>
1.22474

>  <vsurf_DW12>
0.5

>  <vsurf_DW13>
0.707107

>  <vsurf_DW23>
1.11803

>  <vsurf_EDmin1>
-2.96796

>  <vsurf_EDmin2>
-2.87832

>  <vsurf_EDmin3>
-2.87314

>  <vsurf_EWmin1>
-8.52413

>  <vsurf_EWmin2>
-8.33366

>  <vsurf_EWmin3>
-8.29104

>  <vsurf_G>
1.38479

>  <vsurf_HB1>
370.875

>  <vsurf_HB2>
428

>  <vsurf_HB3>
422

>  <vsurf_HB4>
180.75

>  <vsurf_HB5>
76.625

>  <vsurf_HB6>
31.125

>  <vsurf_HB7>
11.375

>  <vsurf_HB8>
5

>  <vsurf_HL1>
0.185639

>  <vsurf_HL2>
0.0868357

>  <vsurf_ID1>
1.07622

>  <vsurf_ID2>
1.00585

>  <vsurf_ID3>
1.06971

>  <vsurf_ID4>
1.28382

>  <vsurf_ID5>
1.52492

>  <vsurf_ID6>
1.61074

>  <vsurf_ID7>
0.926603

>  <vsurf_ID8>
0.665429

>  <vsurf_IW1>
0.211558

>  <vsurf_IW2>
0.959155

>  <vsurf_IW3>
1.4998

>  <vsurf_IW4>
1.91285

>  <vsurf_IW5>
2.20589

>  <vsurf_IW6>
2.61744

>  <vsurf_IW7>
3.45423

>  <vsurf_IW8>
3.35658

>  <vsurf_R>
1.4465

>  <vsurf_S>
628.411

>  <vsurf_V>
909

>  <vsurf_W1>
1562

>  <vsurf_W2>
949.625

>  <vsurf_W3>
518.5

>  <vsurf_W4>
190.375

>  <vsurf_W5>
79.5

>  <vsurf_W6>
31.25

>  <vsurf_W7>
11.375

>  <vsurf_W8>
5

>  <vsurf_Wp1>
1191.13

>  <vsurf_Wp2>
521.625

>  <vsurf_Wp3>
96.5

>  <vsurf_Wp4>
9.625

>  <vsurf_Wp5>
2.875

>  <vsurf_Wp6>
0.125

>  <vsurf_Wp7>
0

>  <vsurf_Wp8>
0

>  <dens>
1.10078

>  <glob>
0.0536475

>  <std_dim1>
4.91587

>  <std_dim2>
1.87157

>  <std_dim3>
1.13861

>  <vol>
390.125

>  <logP(o/w)>
0.73512

$$$$
